%nproc=1
%NoSave
%Mem=1900MB
#P OB98/GEN NMR

erre ene a

0 1
  C     -659.898    -102.200     178.378
  O     -658.732    -101.861     177.657
  P     -657.538    -101.136     178.453
  C     -658.900     -98.914     178.313
  O     -658.146     -99.810     179.122
  C     -658.321     -97.498     178.448
  O     -658.587     -96.966     179.760
  C     -656.807     -97.445     178.281
  O     -656.425     -97.501     176.916
  C     -656.473     -96.116     178.952
  O     -656.664     -95.012     178.041
  C     -657.508     -96.073     180.097
  N     -656.921     -96.389     181.398
  C     -655.989     -95.480     181.887
  O     -655.640     -94.469     181.259
  N     -655.430     -95.781     183.094
  C     -655.667     -96.902     183.839
  O     -655.099     -97.148     184.886
  C     -656.641     -97.850     183.258
  C     -657.212     -97.557     182.078
  O     -656.590    -100.578     177.296
  O     -656.803    -102.028     179.400
  H     -657.599     -95.046     177.765
  H     -655.648    -100.635     177.585
  H     -654.768     -95.118     183.474
  H     -656.857     -98.746     183.815
  H     -657.926     -98.241     181.640
  H     -657.964     -95.068     180.161
  H     -655.428     -96.071     179.292
  H     -656.339     -98.258     178.855
  H     -658.809     -96.850     177.704
  H     -659.940     -98.917     178.638
  H     -658.854     -99.247     177.268
  P     -654.933     -98.000     176.590
  C     -654.455     -95.593     175.674
  O     -654.051     -96.664     176.516
  O     -655.106     -98.481     175.073
  O     -654.456     -99.054     177.538
  H     -655.763     -97.944     174.596
  H     -655.548     -95.503     175.629
  H     -654.062     -95.773     174.664
  H     -654.036     -94.665     176.058
  H     -660.599    -102.672     177.721
  H     -660.335    -101.313     178.788
  H     -659.644    -102.872     179.171

 3  4  5  6  7  8  9  10  11  12  13  23  28  29  30  31  32 0
 6-311+G(2d,p)
 ****
 33  34 0
 6-311+G(2d,p)
 ****
 1  2  14  15  16  17  18  19  20  21  22  24  25  26 0
 3-21G
 ****
 27  35  36  37  38  39  40  41  42  43  44  45 0
 3-21G
 ****


