%nproc=1
%NoSave
%Mem=1900MB
#P OB98/GEN NMR

erre ene a

0 1
  C       12.886    -227.720     -88.902
  O       12.372    -228.606     -87.916
  P       12.369    -228.101     -86.391
  C       12.107    -230.661     -86.030
  O       11.864    -229.353     -85.524
  C       11.458    -231.712     -85.136
  O       12.066    -231.696     -83.829
  C        9.968    -231.507     -84.899
  O        9.182    -232.008     -85.967
  C        9.761    -232.347     -83.648
  O        9.673    -233.740     -84.002
  C       11.050    -232.080     -82.865
  N       12.339    -230.584     -78.149
  C       12.581    -231.725     -78.827
  N       12.194    -232.054     -80.078
  C       11.452    -231.072     -80.618
  C       11.092    -229.870     -80.030
  C       11.578    -229.629     -78.736
  N       11.356    -228.453     -78.057
  N       10.324    -229.120     -80.895
  C       10.229    -229.848     -81.986
  N       10.902    -231.033     -81.873
  O       11.124    -227.095     -86.348
  O       13.632    -227.453     -85.939
  H        8.768    -233.889     -84.341
  H       11.233    -226.462     -85.612
  H       13.172    -232.472     -78.300
  H        9.694    -229.558     -82.880
  H       11.416    -232.975     -82.348
  H        8.837    -232.094     -83.116
  H        9.742    -230.458     -84.678
  H       11.645    -232.697     -85.583
  H       13.186    -230.835     -86.063
  H       11.889    -228.285     -77.218
  H       10.965    -227.673     -78.572
  H       11.710    -230.727     -87.049
  P        8.339    -230.931     -86.810
  C        6.071    -232.071     -86.247
  O        6.999    -231.693     -87.245
  O        9.173    -230.802     -88.169
  O        8.163    -229.620     -86.122
  H        9.018    -229.931     -88.581
  H        5.110    -232.281     -86.722
  H        5.930    -231.268     -85.515
  H        6.421    -232.973     -85.740
  H       12.826    -228.184     -89.864
  H       13.907    -227.492     -88.679
  H       12.311    -226.818     -88.905

 3  4  5  6  7  8  9  10  11  12  22  25  29  30  31  32 0
 6-311+G(2d,p)
 ****
 33  36  37 0
 6-311+G(2d,p)
 ****
 1  2  13  14  15  16  17  18  19  20  21  23  24  26 0
 3-21G
 ****
 27  28  34  35  38  39  40  41  42  43  44  45  46  47  48 0
 3-21G
 ****


