%nproc=1
%NoSave
%Mem=1900MB
#P OB98/GEN NMR

erre ene a

0 1
  C      314.304     -92.480     305.008
  O      315.579     -92.629     304.376
  P      316.585     -91.384     304.525
  C      316.069     -90.089     302.339
  O      315.936     -90.130     303.751
  C      316.102     -88.653     301.816
  O      316.248     -88.620     300.367
  C      314.849     -87.838     302.166
  O      315.273     -86.485     302.382
  C      314.046     -87.897     300.872
  O      313.058     -86.874     300.820
  C      315.180     -87.782     299.854
  N      313.425     -86.158     295.410
  C      313.597     -85.476     296.600
  N      313.308     -84.154     296.587
  N      314.018     -86.038     297.699
  C      314.309     -87.361     297.549
  C      314.195     -88.136     296.419
  C      313.692     -87.505     295.212
  O      313.522     -88.060     294.130
  N      314.614     -89.429     296.656
  C      314.912     -89.431     297.944
  N      314.802     -88.196     298.511
  O      317.825     -91.804     303.607
  O      317.004     -91.115     305.937
  H      313.511     -86.022     301.006
  H      318.556     -92.146     304.160
  H      313.079     -85.674     294.591
  H      315.246     -90.295     298.500
  H      315.558     -86.759     299.766
  H      313.540     -88.866     300.788
  H      313.026     -83.644     295.762
  H      314.287     -88.210     303.027
  H      313.464     -83.629     297.435
  H      316.989     -88.155     302.239
  H      315.228     -90.612     301.870
  H      316.971     -90.643     302.046
  P      314.936     -85.821     303.802
  C      312.356     -85.725     303.530
  O      313.462     -86.293     304.210
  O      314.735     -84.268     303.434
  O      315.991     -85.993     304.841
  H      315.122     -83.714     304.142
  H      311.521     -86.433     303.556
  H      312.600     -85.504     302.482
  H      312.058     -84.797     304.031
  H      313.720     -93.362     304.846
  H      313.796     -91.635     304.592
  H      314.442     -92.332     306.059

 3  4  5  6  7  8  9  10  11  12  23  26  30  31 0
 6-311+G(2d,p)
 ****
 33  35  36  37  38 0
 6-311+G(2d,p)
 ****
 1  2  13  14  15  16  17  18  19  20  21  22  24  25 0
 3-21G
 ****
 27  28  29  32  34  39  40  41  42  43  44  45  46  47  48  49 0
 3-21G
 ****


