%nproc=1
%NoSave
%Mem=1900MB
#P OB98/GEN NMR

erre ene a

0 1
  C     -214.756    -258.344     191.390
  O     -214.981    -258.072     190.023
  H     -213.688    -258.234     191.600
  H     -215.057    -259.367     191.624
  H     -215.314    -257.640     192.014
  P     -216.495    -258.184     189.502
  C     -215.629    -260.075     187.949
  O     -216.421    -258.901     188.062
  C     -216.232    -261.028     186.916
  O     -217.325    -261.766     187.537
  C     -216.801    -260.320     185.677
  O     -216.534    -261.127     184.523
  C     -218.296    -260.318     185.938
  O     -219.053    -260.199     184.737
  C     -218.461    -261.649     186.659
  N     -222.534    -264.494     187.463
  C     -221.416    -264.727     186.686
  N     -221.375    -265.899     186.011
  N     -220.423    -263.884     186.574
  C     -220.585    -262.765     187.322
  C     -221.646    -262.411     188.122
  C     -222.748    -263.344     188.217
  O     -223.775    -263.184     188.872
  N     -221.447    -261.175     188.687
  C     -220.269    -260.785     188.229
  N     -219.707    -261.718     187.400
  O     -216.879    -256.672     189.141
  O     -217.461    -258.798     190.458
  H     -218.676    -260.822     184.081
  H     -217.834    -256.518     189.267
  H     -223.272    -265.173     187.502
  H     -219.786    -259.845     188.465
  H     -218.453    -262.502     185.971
  H     -218.561    -259.477     186.595
  H     -222.085    -266.609     186.073
  H     -216.398    -259.315     185.523
  H     -220.557    -266.094     185.447
  H     -215.475    -261.768     186.636
  H     -215.586    -260.573     188.924
  H     -214.613    -259.796     187.646
  P     -215.183    -260.832     183.708
  C     -216.428    -259.301     182.019
  O     -215.570    -260.416     182.205
  O     -214.541    -262.292     183.537
  O     -214.242    -259.907     184.409
  H     -213.761    -262.375     184.109
  H     -216.593    -259.149     180.973
  H     -215.974    -258.428     182.440
  H     -217.363    -259.486     182.504

 6  7  8  9  10  11  12  13  14  15  26  29  33  34 0
 6-311+G(2d,p)
 ****
 36  38  39  40  41 0
 6-311+G(2d,p)
 ****
 1  2  3  4  5  16  17  18  19  20  21  22  23  24  25 0
 3-21G
 ****
 27  28  30  31  32  35  37  42  43  44  45  46  47 0
 3-21G
 ****
 48  49 0
 3-21G
 ****


