%nproc=1
%NoSave
%Mem=1900MB
#P OB98/GEN NMR

erre ene a

0 1
  C     -692.393     361.420     127.930
  O     -692.756     362.677     127.385
  P     -693.321     363.828     128.341
  C     -695.730     363.208     127.661
  O     -694.821     363.428     128.739
  C     -697.111     363.783     127.992
  O     -697.955     362.757     128.568
  C     -697.081     364.910     129.018
  O     -696.632     366.119     128.421
  C     -698.532     364.917     129.479
  O     -699.356     365.651     128.558
  C     -698.886     363.416     129.447
  N     -700.866     363.514     134.153
  C     -700.992     364.350     133.102
  N     -700.404     364.275     131.883
  C     -699.579     363.219     131.833
  C     -699.310     362.303     132.832
  C     -700.014     362.461     134.033
  N     -699.935     361.571     135.100
  N     -698.377     361.373     132.395
  C     -698.086     361.731     131.182
  N     -698.826     362.803     130.763
  O     -693.158     365.226     127.833
  O     -692.521     363.623     129.712
  H     -699.157     365.317     127.662
  H     -692.010     364.435     129.907
  H     -701.672     365.182     133.243
  H     -697.361     361.245     130.537
  H     -699.891     363.239     129.043
  H     -698.655     365.385     130.465
  H     -696.431     364.638     129.854
  H     -697.568     364.123     127.047
  H     -695.815     362.129     127.485
  H     -700.598     361.720     135.854
  H     -699.558     360.641     134.922
  H     -695.334     363.680     126.756
  P     -695.793     367.168     129.287
  C     -697.664     368.870     129.727
  O     -696.821     367.884     130.292
  O     -694.921     368.093     128.498
  O     -694.928     366.239     130.271
  H     -694.081     366.670     130.450
  H     -697.111     369.800     129.593
  H     -698.497     369.053     130.414
  H     -698.065     368.546     128.756
  H     -692.039     360.781     127.148
  H     -693.246     360.974     128.397
  H     -691.620     361.556     128.657

 3  4  5  6  7  8  9  10  11  12  22  25  29  30  31  32 0
 6-311+G(2d,p)
 ****
 33  36  37 0
 6-311+G(2d,p)
 ****
 1  2  13  14  15  16  17  18  19  20  21  23  24  26 0
 3-21G
 ****
 27  28  34  35  38  39  40  41  42  43  44  45  46  47  48 0
 3-21G
 ****


