%nproc=1
%NoSave
%Mem=1900MB
#P OB98/GEN NMR

erre ene a

0 1
  C      107.445    -164.736    -111.162
  O      107.197    -164.303    -112.484
  H      108.374    -164.276    -110.815
  H      107.561    -165.822    -111.132
  H      106.633    -164.426    -110.497
  P      105.883    -164.842    -113.231
  C      107.330    -165.734    -115.188
  O      106.419    -166.052    -114.146
  C      108.404    -166.812    -115.296
  O      109.070    -167.020    -114.031
  C      107.889    -168.194    -115.686
  O      107.518    -168.303    -117.049
  C      109.109    -169.033    -115.349
  O      110.112    -168.854    -116.365
  C      109.545    -168.395    -114.009
  N      109.012    -169.105    -112.848
  C      109.712    -170.245    -112.435
  O      110.717    -170.618    -113.037
  N      109.236    -170.960    -111.361
  C      108.145    -170.584    -110.768
  N      107.716    -171.334    -109.715
  C      107.365    -169.402    -111.183
  C      107.852    -168.716    -112.216
  O      105.065    -163.812    -113.943
  O      105.072    -165.631    -112.099
  H      110.951    -169.190    -115.997
  H      104.241    -165.976    -112.508
  H      106.447    -169.149    -110.676
  H      107.329    -167.838    -112.584
  H      110.638    -168.359    -113.932
  H      108.894    -170.101    -115.290
  H      107.064    -168.502    -115.031
  H      109.163    -166.451    -116.003
  H      108.270    -172.139    -109.454
  H      107.775    -164.758    -114.966
  H      106.837    -171.160    -109.245
  H      106.802    -165.675    -116.143
  P      105.946    -168.426    -117.368
  C      106.242    -170.277    -119.186
  O      105.717    -169.914    -117.920
  O      105.763    -167.499    -118.654
  O      105.037    -168.042    -116.244
  H      105.422    -166.619    -118.400
  H      105.997    -171.298    -119.394
  H      107.306    -170.160    -119.178
  H      105.819    -169.648    -119.941

 6  7  8  9  10  11  12  13  14  15  16  26  30  31  32  33  35 0
 6-311+G(2d,p)
 ****
 37  38 0
 6-311+G(2d,p)
 ****
 1  2  3  4  5  17  18  19  20  21  22  23  24  25 0
 3-21G
 ****
 27  28  29  34  36  39  40  41  42  43  44  45  46 0
 3-21G
 ****


