%nproc=1
%NoSave
%Mem=1900MB
#P OB98/GEN NMR

erre ene a

0 1
  C     -167.340      92.646     -60.613
  O     -167.736      92.765     -61.964
  H     -166.254      92.743     -60.555
  H     -167.624      91.665     -60.224
  H     -167.795      93.433     -60.004
  P     -169.299      92.862     -62.308
  C     -169.249      95.388     -62.822
  O     -169.755      94.363     -61.977
  C     -170.346      96.411     -63.113
  O     -170.851      96.966     -61.880
  C     -169.879      97.602     -63.943
  O     -169.734      97.245     -65.306
  C     -170.992      98.600     -63.655
  O     -172.148      98.324     -64.460
  C     -171.279      98.317     -62.161
  N     -170.631      99.269     -61.259
  C     -171.210     100.530     -61.168
  O     -172.194     100.866     -61.828
  N     -170.608     101.405     -60.300
  C     -169.463     101.170     -59.598
  O     -168.932     102.009     -58.871
  C     -168.873      99.833     -59.758
  C     -169.474      98.959     -60.569
  O     -170.162      91.798     -61.713
  O     -169.334      92.822     -63.909
  H     -172.480      97.449     -64.180
  H     -169.569      91.924     -64.210
  H     -171.008     102.327     -60.230
  H     -167.959      99.614     -59.219
  H     -169.051      97.969     -60.704
  H     -172.359      98.350     -61.970
  H     -170.699      99.629     -63.866
  H     -168.938      97.999     -63.541
  H     -171.173      95.889     -63.613
  H     -168.912      94.936     -63.761
  H     -168.395      95.865     -62.329
  P     -168.715      98.032     -66.253
  C     -166.877      96.246     -66.267
  O     -167.228      97.564     -65.861
  O     -168.909      99.512     -66.306
  O     -168.936      97.368     -67.693
  H     -169.433      97.983     -68.269
  H     -165.874      96.033     -65.960
  H     -166.948      96.170     -67.332
  H     -167.545      95.543     -65.814

 6  7  8  9  10  11  12  13  14  15  16  26  31  32  33  34  35 0
 6-311+G(2d,p)
 ****
 36  37 0
 6-311+G(2d,p)
 ****
 1  2  3  4  5  17  18  19  20  21  22  23  24  25 0
 3-21G
 ****
 27  28  29  30  38  39  40  41  42  43  44  45 0
 3-21G
 ****


