%nproc=1
%NoSave
%Mem=1900MB
#P OB98/GEN NMR

erre ene a

0 1
  C      -61.450    -102.090     149.558
  O      -62.074    -100.808     149.544
  P      -63.585    -100.526     149.112
  C      -63.226    -101.222     146.599
  O      -63.922    -101.413     147.822
  C      -64.140    -101.494     145.393
  O      -64.559    -102.892     145.430
  C      -65.416    -100.640     145.420
  O      -65.778    -100.114     144.142
  C      -66.422    -101.552     146.103
  O      -67.773    -101.186     145.863
  C      -65.995    -102.930     145.596
  N      -68.259    -107.485     146.079
  C      -68.212    -106.643     144.987
  N      -68.863    -107.055     143.875
  N      -67.595    -105.490     144.983
  C      -67.051    -105.164     146.177
  C      -67.045    -105.909     147.341
  C      -67.688    -107.203     147.318
  O      -67.744    -107.998     148.251
  N      -66.388    -105.250     148.348
  C      -66.013    -104.107     147.809
  N      -66.388    -104.010     146.484
  O      -63.992     -99.089     149.064
  O      -64.453    -101.237     150.273
  H      -68.030    -101.549     144.995
  H      -65.268    -100.707     150.369
  H      -68.729    -108.375     146.017
  H      -65.459    -103.326     148.319
  H      -66.437    -103.167     144.626
  H      -66.256    -101.474     147.187
  H      -69.457    -107.867     143.845
  H      -65.270     -99.743     146.031
  H      -69.012    -106.340     143.157
  H      -63.567    -101.335     144.473
  H      -62.396    -101.939     146.605
  H      -62.795    -100.219     146.550
  P      -65.347     -98.731     143.476
  C      -67.093     -97.108     144.423
  O      -65.742     -97.538     144.468
  O      -66.356     -98.526     142.249
  O      -63.929     -98.684     142.988
  H      -65.852     -98.504     141.409
  H      -67.168     -96.144     144.933
  H      -67.724     -97.835     144.947
  H      -67.431     -96.994     143.391
  H      -60.437    -101.990     149.888
  H      -61.464    -102.504     148.572
  H      -61.980    -102.738     150.225

 3  4  5  6  7  8  9  10  11  12  23  26  30  31 0
 6-311+G(2d,p)
 ****
 33  35  36  37  38 0
 6-311+G(2d,p)
 ****
 1  2  13  14  15  16  17  18  19  20  21  22  24  25 0
 3-21G
 ****
 27  28  29  32  34  39  40  41  42  43  44  45  46  47  48  49 0
 3-21G
 ****


