%nproc=1
%NoSave
%Mem=1900MB
#P OB98/GEN NMR

erre ene a

0 1
  C      637.600    -629.607     -81.219
  O      638.881    -630.232     -81.157
  P      640.034    -629.459     -80.353
  C      640.933    -627.106     -80.987
  O      640.698    -628.445     -81.407
  C      641.578    -626.299     -82.109
  O      640.616    -626.093     -83.163
  C      642.043    -624.906     -81.693
  O      643.305    -624.947     -81.048
  C      642.139    -624.229     -83.058
  O      643.396    -624.560     -83.678
  C      640.963    -624.849     -83.828
  N      638.446    -621.372     -86.517
  C      639.631    -622.033     -86.803
  N      640.205    -621.736     -87.991
  N      640.196    -622.892     -86.000
  C      639.488    -623.112     -84.872
  C      638.297    -622.524     -84.474
  C      637.711    -621.533     -85.352
  O      636.698    -620.870     -85.117
  N      637.875    -623.017     -83.268
  C      638.779    -623.930     -82.952
  N      639.788    -624.008     -83.881
  O      641.158    -630.581     -80.168
  O      639.619    -628.874     -79.045
  H      644.097    -624.391     -83.010
  H      641.710    -630.382     -79.391
  H      638.043    -620.724     -87.177
  H      638.736    -624.560     -82.064
  H      641.263    -625.101     -84.852
  H      642.107    -623.129     -82.980
  H      639.757    -621.183     -88.702
  H      641.283    -624.401     -81.080
  H      641.058    -622.234     -88.239
  H      642.413    -626.883     -82.515
  H      641.606    -627.116     -80.122
  H      639.981    -626.660     -80.680
  P      643.684    -623.653     -80.167
  C      643.763    -621.135     -80.782
  O      643.903    -622.473     -81.225
  O      645.163    -623.987     -79.647
  O      642.749    -623.375     -79.039
  H      645.351    -623.511     -78.817
  H      644.136    -621.000     -79.765
  H      642.704    -620.844     -80.822
  H      644.331    -620.478     -81.452
  H      636.929    -630.223     -81.780
  H      637.691    -628.653     -81.696
  H      637.219    -629.476     -80.228

 3  4  5  6  7  8  9  10  11  12  23  26  30  31  33  0
 6-311+G(2d,p)
 ****
 35  36  37  38 0
 6-311+G(2d,p)
 ****
 1  2  13  14  15  16  17  18  19  20  21  22  24  25  27  28  29 0
 3-21G
 ****
 32  34  39  40  41  42  43  44  45  46  47  48  49 0
 3-21G
 ****


