%nproc=1
%NoSave
%Mem=1900MB
#P OB98/GEN NMR

erre ene a

0 1
  C      339.791    -488.952    -452.329
  O      341.188    -488.794    -452.509
  P      342.145    -489.834    -451.748
  C      342.233    -491.930    -453.305
  O      341.651    -491.297    -452.175
  C      343.156    -493.058    -452.843
  O      344.357    -492.507    -452.246
  C      342.546    -493.980    -451.796
  O      341.720    -494.951    -452.409
  C      343.796    -494.564    -451.138
  O      344.336    -495.639    -451.924
  C      344.747    -493.355    -451.128
  N      347.416    -492.033    -447.046
  C      347.688    -492.974    -448.019
  N      348.871    -493.619    -447.918
  N      346.886    -493.251    -449.013
  C      345.734    -492.533    -448.985
  C      345.339    -491.589    -448.065
  C      346.266    -491.258    -447.006
  O      346.111    -490.363    -446.174
  N      344.093    -491.093    -448.350
  C      343.753    -491.717    -449.463
  N      344.719    -492.585    -449.898
  O      341.681    -489.698    -450.220
  O      343.608    -489.603    -451.927
  H      344.589    -495.302    -452.804
  H      342.290    -489.108    -449.730
  H      348.078    -491.850    -446.316
  H      342.828    -491.563    -449.998
  H      345.788    -493.652    -451.299
  H      343.584    -494.976    -450.147
  H      349.531    -493.477    -447.165
  H      341.977    -493.400    -451.055
  H      349.090    -494.316    -448.618
  H      343.461    -493.629    -453.729
  H      342.811    -491.199    -453.872
  H      341.438    -492.324    -453.943
  P      340.541    -495.589    -451.530
  C      338.839    -493.709    -452.089
  O      339.574    -494.387    -451.092
  O      341.278    -496.000    -450.167
  O      339.860    -496.757    -452.157
  H      340.891    -496.828    -449.822
  H      337.910    -493.336    -451.653
  H      338.597    -494.362    -452.934
  H      339.423    -492.858    -452.452
  H      339.272    -488.200    -452.886
  H      339.552    -488.855    -451.291
  H      339.494    -489.920    -452.674

 3  4  5  6  7  8  9  10  11  12  23  26  30  31 0
 6-311+G(2d,p)
 ****
 33  35  36  37  38 0
 6-311+G(2d,p)
 ****
 1  2  13  14  15  16  17  18  19  20  21  22  24  25 0
 3-21G
 ****
 27  28  29  32  34  39  40  41  42  43  44  45  46  47  48  49 0
 3-21G
 ****


