%nproc=1
%NoSave
%Mem=1900MB
#P OB98/GEN NMR

erre ene a

0 1
  C      249.827     126.341    1130.835
  O      249.711     127.656    1130.326
  H      250.477     126.363    1131.716
  H      250.261     125.686    1130.084
  H      248.841     125.974    1131.128
  P      248.885     127.828    1128.958
  C      248.405     130.325    1129.553
  O      248.994     129.400    1128.651
  C      248.868     131.745    1129.232
  O      248.480     132.119    1127.890
  C      248.264     132.831    1130.140
  O      248.891     132.901    1131.408
  C      248.559     134.060    1129.301
  O      249.962     134.387    1129.383
  C      248.199     133.552    1127.879
  N      246.797     133.798    1127.524
  C      246.554     134.889    1126.676
  O      247.476     135.596    1126.273
  N      245.250     135.177    1126.342
  C      244.281     134.446    1126.781
  N      243.018     134.789    1126.413
  C      244.499     133.265    1127.659
  C      245.765     133.008    1127.994
  O      247.361     127.667    1129.428
  O      249.288     126.939    1127.832
  H      250.114     134.754    1130.262
  H      246.750     127.903    1128.682
  H      243.653     132.683    1128.014
  H      245.990     132.165    1128.625
  H      248.855     133.996    1127.127
  H      248.015     134.948    1129.606
  H      247.185     132.716    1130.233
  H      249.954     131.757    1129.260
  H      242.911     135.633    1125.859
  H      248.709     130.052    1130.576
  H      242.195     134.357    1126.821
  H      247.313     130.271    1129.478
  P      247.943     133.219    1132.668
  C      249.851     131.962    1133.900
  O      248.799     132.920    1133.986
  O      246.864     132.026    1132.648
  O      247.282     134.567    1132.630
  H      245.988     132.347    1132.946
  H      250.329     131.870    1134.853
  H      250.566     132.282    1133.172
  H      249.447     131.014    1133.611

 6  7  8  9  10  11  12  13  14  15  16  26  30  31  32  33  35 0
 6-311+G(2d,p)
 ****
 37  38 0
 6-311+G(2d,p)
 ****
 1  2  3  4  5  17  18  19  20  21  22  23  24  25 0
 3-21G
 ****
 27  28  29  34  36  39  40  41  42  43  44  45  46 0
 3-21G
 ****


