%nproc=1
%NoSave
%Mem=1900MB
#P OB98/GEN NMR

erre ene a

0 1
  C       82.240     181.654     144.121
  O       81.456     180.862     143.246
  P       81.912     180.638     141.725
  C       82.950     182.144     139.906
  O       82.292     182.097     141.169
  C       82.573     183.419     139.143
  O       81.190     183.378     138.740
  C       82.727     184.698     139.960
  O       84.094     185.076     140.041
  C       81.849     185.660     139.165
  O       82.558     186.201     138.040
  C       80.701     184.742     138.695
  N       79.491     184.908     139.496
  C       78.298     185.064     138.774
  O       78.322     185.091     137.543
  N       77.124     185.240     139.471
  C       77.148     185.270     140.771
  N       75.950     185.457     141.402
  C       78.386     185.140     141.561
  C       79.508     184.963     140.872
  O       80.949     179.864     140.883
  O       83.340     179.928     141.874
  H       83.108     185.470     137.684
  H       83.248     178.982     142.157
  H       78.352     185.185     142.644
  H       80.461     184.861     141.377
  H       80.451     184.942     137.646
  H       81.514     186.506     139.777
  H       82.302     184.554     140.959
  H       83.193     183.473     138.239
  H       75.133     185.571     140.817
  H       82.637     181.272     139.322
  H       75.860     185.533     142.402
  H       84.034     182.090     140.053
  P       84.691     185.604     141.427
  C       83.841     187.262     143.203
  O       83.901     186.946     141.825
  O       86.181     185.698     141.490
  O       84.145     184.542     142.503
  H       84.875     184.305     143.111
  H       83.596     188.323     143.308
  H       84.805     187.065     143.689
  H       83.066     186.660     143.679
  H       81.777     181.686     145.085
  H       82.318     182.647     143.730
  H       83.217     181.228     144.209

 3  4  5  6  7  8  9  10  11  12  13  23  27  28  29  30  32 0
 6-311+G(2d,p)
 ****
 34  35 0
 6-311+G(2d,p)
 ****
 1  2  14  15  16  17  18  19  20  21  22  24  25  26 0
 3-21G
 ****
 31  33  36  37  38  39  40  41  42  43  44  45  46 0
 3-21G
 ****


