%nproc=1
%NoSave
%Mem=1900MB
#P OB98/GEN NMR

erre ene a

0 1
  C     -331.283    -204.017    -562.810
  O     -332.168    -204.977    -563.353
  H     -330.459    -204.540    -562.319
  H     -331.800    -203.401    -562.069
  H     -330.882    -203.389    -563.608
  P     -333.478    -204.412    -564.091
  C     -335.461    -205.781    -563.176
  O     -334.459    -205.682    -564.185
  C     -335.783    -207.255    -562.890
  O     -334.716    -207.813    -562.091
  C     -337.095    -207.450    -562.130
  O     -337.753    -208.618    -562.619
  C     -336.641    -207.682    -560.699
  O     -337.590    -208.437    -559.943
  C     -335.301    -208.393    -560.904
  N     -333.097    -210.771    -556.973
  C     -333.820    -211.231    -558.014
  N     -334.360    -210.526    -559.036
  C     -334.040    -209.217    -558.926
  C     -333.321    -208.608    -557.920
  C     -332.835    -209.444    -556.892
  N     -332.117    -208.982    -555.816
  N     -333.248    -207.243    -558.137
  C     -333.904    -207.044    -559.265
  N     -334.422    -208.207    -559.767
  O     -333.236    -203.696    -565.376
  O     -334.151    -203.539    -562.933
  H     -337.230    -208.563    -559.044
  H     -334.136    -204.011    -562.079
  H     -333.998    -212.303    -558.032
  H     -334.046    -206.080    -559.748
  H     -335.412    -209.471    -561.064
  H     -336.495    -206.721    -560.196
  H     -337.757    -206.590    -562.207
  H     -335.788    -207.805    -563.843
  H     -336.373    -205.265    -563.493
  H     -331.800    -209.653    -555.136
  H     -331.900    -207.996    -555.751
  H     -335.081    -205.298    -562.274
  P     -339.230    -208.462    -563.222
  C     -339.993    -210.824    -562.502
  O     -339.794    -209.931    -563.590
  O     -339.397    -207.429    -564.284
  O     -340.097    -208.089    -561.921
  H     -340.783    -207.440    -562.176
  H     -340.366    -211.757    -562.870
  H     -340.700    -210.402    -561.819
  H     -339.063    -210.985    -561.998

 6  7  8  9  10  11  12  13  14  15  25  28  32  33  34  35 0
 6-311+G(2d,p)
 ****
 36  39  40 0
 6-311+G(2d,p)
 ****
 1  2  3  4  5  16  17  18  19  20  21  22  23  24 0
 3-21G
 ****
 26  27  29  30  31  37  38  41  42  43  44  45  46  47 0
 3-21G
 ****
 48 0
 3-21G
 ****


