%nproc=1
%NoSave
%Mem=1900MB
#P OB98/GEN NMR

erre ene a

0 1
  C     -633.587     497.942     398.378
  O     -632.865     497.816     397.166
  P     -631.368     498.389     397.044
  C     -629.344     497.587     395.663
  O     -630.511     497.197     396.391
  C     -628.585     496.343     395.177
  O     -628.003     495.634     396.299
  C     -629.438     495.328     394.436
  O     -629.709     495.764     393.114
  C     -628.576     494.087     394.527
  O     -627.563     494.078     393.522
  C     -627.938     494.241     395.936
  N     -628.584     493.388     396.937
  C     -627.910     492.207     397.260
  O     -626.839     491.928     396.702
  N     -628.463     491.367     398.195
  C     -629.616     491.650     398.711
  N     -630.124     490.766     399.622
  C     -630.385     492.864     398.366
  C     -629.808     493.669     397.478
  O     -630.808     498.977     398.295
  O     -631.489     499.437     395.848
  H     -628.020     494.250     392.666
  H     -631.948     500.272     396.131
  H     -631.337     493.066     398.825
  H     -630.307     494.597     397.156
  H     -626.877     493.965     395.906
  H     -629.163     493.161     394.417
  H     -630.382     495.152     394.983
  H     -627.760     496.689     394.527
  H     -629.583     489.936     399.812
  H     -628.700     498.160     396.334
  H     -631.027     490.880     400.057
  H     -629.638     498.215     394.824
  P     -630.886     495.087     392.268
  C     -632.510     495.788     390.397
  O     -631.554     496.237     391.369
  O     -631.853     494.256     393.062
  O     -630.109     494.187     391.200
  H     -630.551     493.309     391.152
  H     -633.108     496.664     390.091
  H     -633.149     495.028     390.803
  H     -631.972     495.401     389.540
  H     -634.556     497.503     398.263
  H     -633.691     498.978     398.625
  H     -633.059     497.440     399.162

 3  4  5  6  7  8  9  10  11  12  13  23  27  28  29  30  32 0
 6-311+G(2d,p)
 ****
 34  35 0
 6-311+G(2d,p)
 ****
 1  2  14  15  16  17  18  19  20  21  22  24  25  26 0
 3-21G
 ****
 31  33  36  37  38  39  40  41  42  43  44  45  46 0
 3-21G
 ****


