%nproc=1
%NoSave
%Mem=1900MB
#P OB98/GEN NMR

erre ene a

0 1
  C      532.775     570.040     421.700
  O      531.882     569.748     420.616
  P      532.040     568.458     419.663
  C      531.591     569.661     417.420
  O      531.135     568.695     418.351
  C      530.620     569.761     416.235
  O      529.364     570.325     416.660
  C      531.077     570.667     415.093
  O      532.119     570.100     414.322
  C      529.771     570.865     414.329
  O      529.520     569.785     413.420
  C      528.715     570.841     415.464
  N      528.111     572.147     415.729
  C      527.199     572.607     414.764
  O      526.993     571.957     413.729
  N      526.563     573.788     414.988
  C      526.883     574.508     416.028
  N      526.190     575.667     416.212
  C      527.928     574.130     416.984
  C      528.498     572.936     416.769
  O      531.766     567.156     420.356
  O      533.549     568.513     419.113
  H      533.846     567.611     418.897
  H      530.073     569.952     412.628
  H      528.201     574.773     417.812
  H      529.289     572.575     417.437
  H      527.926     570.110     415.230
  H      529.764     571.790     413.748
  H      531.410     571.632     415.505
  H      530.440     568.749     415.854
  H      525.467     575.903     415.542
  H      532.575     569.357     417.051
  H      526.343     576.289     416.994
  H      531.697     570.627     417.920
  P      533.122     571.106     413.591
  C      532.917     570.203     411.157
  O      533.726     570.367     412.317
  O      534.371     571.219     414.603
  O      532.542     572.458     413.301
  H      534.690     572.144     414.620
  H      533.556     570.146     410.277
  H      532.217     571.044     411.045
  H      532.357     569.274     411.246
  H      532.466     570.944     422.183
  H      533.769     570.159     421.321
  H      532.756     569.235     422.405

 3  4  5  6  7  8  9  10  11  12  13  24  27  28  29  30  32 0
 6-311+G(2d,p)
 ****
 34  35 0
 6-311+G(2d,p)
 ****
 1  2  14  15  16  17  18  19  20  21  22  23  25  26 0
 3-21G
 ****
 31  33  36  37  38  39  40  41  42  43  44  45  46 0
 3-21G
 ****


