%nproc=1
%NoSave
%Mem=1900MB
#P OB98/GEN NMR

erre ene a

0 1
  C       39.090     143.135    -166.866
  O       38.705     142.882    -168.203
  P       39.752     143.106    -169.392
  C       39.309     145.637    -169.342
  O       40.295     144.611    -169.289
  C       39.968     147.011    -169.262
  O       40.543     147.219    -167.956
  C       41.113     147.207    -170.249
  O       40.621     147.439    -171.554
  C       41.844     148.389    -169.623
  O       41.201     149.625    -169.977
  C       41.673     148.106    -168.122
  N       46.433     149.035    -166.544
  C       45.554     149.784    -167.243
  N       44.314     149.449    -167.661
  C       44.021     148.188    -167.303
  C       44.829     147.292    -166.622
  C       46.086     147.769    -166.210
  N       46.966     147.036    -165.445
  N       44.184     146.079    -166.473
  C       43.018     146.239    -167.062
  N       42.850     147.515    -167.520
  O       39.280     142.695    -170.746
  O       41.021     142.236    -168.948
  H       40.246     149.511    -169.816
  H       41.193     141.549    -169.619
  H       45.886     150.787    -167.493
  H       42.260     145.473    -167.166
  H       41.442     149.018    -167.560
  H       42.885     148.460    -169.946
  H       41.772     146.330    -170.235
  H       39.193     147.773    -169.415
  H       38.627     145.503    -168.497
  H       47.772     147.522    -165.084
  H       46.607     146.229    -164.940
  H       38.739     145.543    -170.272
  P       41.323     146.732    -172.808
  C       42.782     148.788    -173.277
  O       42.767     147.406    -172.976
  O       40.502     146.661    -174.053
  O       41.677     145.268    -172.262
  H       41.629     144.627    -172.997
  H       42.555     148.935    -174.337
  H       43.779     149.182    -173.068
  H       42.052     149.328    -172.668
  H       38.267     142.932    -166.213
  H       39.380     144.160    -166.766
  H       39.915     142.504    -166.607

 3  4  5  6  7  8  9  10  11  12  22  25  29  30  31  32 0
 6-311+G(2d,p)
 ****
 33  36  37 0
 6-311+G(2d,p)
 ****
 1  2  13  14  15  16  17  18  19  20  21  23  24  26 0
 3-21G
 ****
 27  28  34  35  38  39  40  41  42  43  44  45  46  47  48 0
 3-21G
 ****


