%nproc=1
%NoSave
%Mem=1900MB
#P OB98/GEN NMR

erre ene a

0 1
  C     -836.453    -200.004     351.596
  O     -836.232    -198.609     351.455
  H     -836.387    -200.262     352.656
  H     -835.686    -200.567     351.052
  H     -837.443    -200.276     351.226
  P     -836.274    -197.985     349.978
  C     -835.810    -195.559     350.751
  O     -835.331    -196.683     350.020
  C     -834.664    -194.599     351.051
  O     -833.766    -195.172     352.013
  C     -833.826    -194.239     349.822
  O     -834.469    -193.226     349.066
  C     -832.548    -193.762     350.507
  O     -832.741    -192.429     351.022
  C     -832.408    -194.777     351.652
  N     -827.832    -196.586     350.446
  C     -828.245    -195.284     350.657
  N     -827.312    -194.317     350.479
  N     -829.464    -194.952     350.987
  C     -830.306    -196.010     351.068
  C     -830.012    -197.347     350.861
  C     -828.642    -197.703     350.540
  O     -828.234    -198.848     350.361
  N     -831.143    -198.132     350.958
  C     -832.098    -197.272     351.256
  N     -831.652    -195.974     351.316
  O     -837.631    -197.722     349.407
  O     -835.431    -199.023     349.088
  H     -831.874    -192.124     351.346
  H     -836.019    -199.693     348.680
  H     -826.877    -196.774     350.177
  H     -833.134    -197.535     351.445
  H     -831.948    -194.332     352.537
  H     -831.695    -193.723     349.826
  H     -826.459    -194.494     349.962
  H     -833.590    -195.121     349.218
  H     -827.607    -193.359     350.581
  H     -835.095    -193.697     351.510
  H     -836.254    -195.942     351.681
  H     -836.587    -195.041     350.172
  P     -834.169    -193.059     347.499
  C     -835.737    -191.011     347.749
  O     -834.553    -191.530     347.162
  O     -834.827    -194.076     346.620
  O     -832.573    -193.050     347.379
  H     -832.189    -193.953     347.287
  H     -835.870    -189.994     347.444
  H     -835.656    -191.056     348.815
  H     -836.577    -191.592     347.431

 6  7  8  9  10  11  12  13  14  15  26  29  33  34 0
 6-311+G(2d,p)
 ****
 36  38  39  40  41 0
 6-311+G(2d,p)
 ****
 1  2  3  4  5  16  17  18  19  20  21  22  23  24  25 0
 3-21G
 ****
 27  28  30  31  32  35  37  42  43  44  45  46  47 0
 3-21G
 ****
 48  49 0
 3-21G
 ****


