%nproc=1
%NoSave
%Mem=1900MB
#P OB98/GEN NMR

erre ene a

0 1
  C     -537.028      78.288    -817.151
  O     -537.603      77.378    -816.196
  P     -538.284      75.978    -816.608
  C     -537.001      74.523    -814.893
  O     -538.267      75.018    -815.319
  C     -537.144      73.771    -813.562
  O     -537.270      74.717    -812.464
  C     -538.379      72.886    -813.417
  O     -538.271      71.700    -814.202
  C     -538.428      72.659    -811.921
  O     -537.566      71.573    -811.525
  C     -537.876      73.989    -811.363
  N     -538.899      74.797    -810.703
  C     -539.220      74.438    -809.396
  O     -538.720      73.441    -808.876
  N     -540.129      75.221    -808.708
  C     -540.733      76.198    -809.325
  N     -541.602      76.937    -808.587
  C     -540.516      76.507    -810.756
  C     -539.596      75.776    -811.374
  O     -537.689      75.350    -817.829
  O     -539.836      76.317    -816.834
  H     -540.226      75.670    -817.454
  H     -537.671      71.462    -810.565
  H     -541.086      77.295    -811.229
  H     -539.379      75.953    -812.421
  H     -537.062      73.789    -810.656
  H     -539.432      72.409    -811.576
  H     -539.268      73.462    -813.752
  H     -536.227      73.178    -813.403
  H     -541.722      76.698    -807.607
  H     -536.328      75.367    -814.750
  H     -542.118      77.735    -808.965
  H     -536.592      73.868    -815.666
  P     -539.645      70.939    -814.534
  C     -539.743      71.220    -817.120
  O     -539.523      70.348    -816.024
  O     -540.721      72.112    -814.683
  O     -540.064      69.928    -813.500
  H     -541.558      71.831    -814.274
  H     -539.181      70.855    -817.974
  H     -539.432      72.245    -816.889
  H     -540.807      71.208    -817.370
  H     -536.640      79.144    -816.639
  H     -537.780      78.599    -817.845
  H     -536.236      77.798    -817.678

 3  4  5  6  7  8  9  10  11  12  13  24  27  28  29  30  32 0
 6-311+G(2d,p)
 ****
 34  35 0
 6-311+G(2d,p)
 ****
 1  2  14  15  16  17  18  19  20  21  22  23  25  26 0
 3-21G
 ****
 31  33  36  37  38  39  40  41  42  43  44  45  46 0
 3-21G
 ****


