%nproc=1
%NoSave
%Mem=1900MB
#P OB98/GEN NMR

erre ene a

0 1
  C     -129.765      43.374    -102.466
  O     -131.192      43.248    -102.418
  P     -131.962      41.914    -102.868
  C     -132.356      41.232    -100.411
  O     -131.877      40.831    -101.692
  C     -133.039      40.073     -99.677
  O     -132.113      38.993     -99.461
  C     -133.579      40.425     -98.295
  O     -134.779      41.169     -98.387
  C     -133.733      39.036     -97.679
  O     -134.964      38.422     -98.093
  C     -132.521      38.291     -98.271
  N     -131.423      38.165     -97.322
  C     -131.401      37.005     -96.540
  O     -132.305      36.175     -96.630
  N     -130.360      36.826     -95.659
  C     -129.469      37.758     -95.515
  N     -128.459      37.522     -94.633
  C     -129.508      39.034     -96.251
  C     -130.500      39.167     -97.127
  O     -131.547      41.395    -104.205
  O     -133.514      42.319    -102.886
  H     -135.010      38.519     -99.065
  H     -133.972      41.795    -103.570
  H     -128.763      39.796     -96.082
  H     -130.598      40.071     -97.720
  H     -132.814      37.285     -98.599
  H     -133.737      39.061     -96.585
  H     -132.824      40.989     -97.732
  H     -133.848      39.699    -100.318
  H     -128.459      36.633     -94.149
  H     -133.077      42.044    -100.554
  H     -127.716      38.179     -94.448
  H     -131.514      41.611     -99.823
  P     -134.883      42.606     -97.687
  C     -135.170      43.860     -99.906
  O     -134.378      43.698     -98.744
  O     -134.271      42.706     -96.329
  O     -136.461      42.883     -97.623
  H     -136.654      43.420     -96.833
  H     -134.979      44.852    -100.324
  H     -136.234      43.772     -99.675
  H     -134.891      43.106    -100.645
  H     -129.481      44.346    -102.120
  H     -129.429      43.242    -103.473
  H     -129.320      42.628    -101.841

 3  4  5  6  7  8  9  10  11  12  13  23  27  28  29  30  32 0
 6-311+G(2d,p)
 ****
 34  35 0
 6-311+G(2d,p)
 ****
 1  2  14  15  16  17  18  19  20  21  22  24  25  26 0
 3-21G
 ****
 31  33  36  37  38  39  40  41  42  43  44  45  46 0
 3-21G
 ****


