%nproc=1
%NoSave
%Mem=1900MB
#P OB98/GEN NMR

erre ene a

0 1
  C        0.173       3.882     -41.130
  O        0.275       2.976     -42.237
  P       -0.348       1.496     -42.225
  C       -2.663       1.420     -43.357
  O       -1.259       1.292     -43.531
  C       -3.376       1.721     -44.680
  O       -3.097       3.092     -45.099
  C       -2.975       0.796     -45.843
  O       -4.167       0.542     -46.593
  C       -2.002       1.671     -46.620
  O       -1.790       1.243     -47.952
  C       -2.707       3.025     -46.487
  N       -1.907       4.187     -46.855
  C       -1.207       4.139     -48.068
  O       -1.216       3.132     -48.773
  N       -0.484       5.242     -48.452
  C       -0.451       6.295     -47.697
  N        0.276       7.354     -48.142
  C       -1.155       6.382     -46.407
  C       -1.856       5.306     -46.055
  O       -1.052       1.154     -40.953
  O        0.891       0.511     -42.464
  H        0.755      -0.306     -41.947
  H       -0.962       1.647     -48.269
  H       -1.108       7.282     -45.812
  H       -2.427       5.302     -45.131
  H       -3.629       3.013     -47.078
  H       -1.036       1.661     -46.108
  H       -2.552      -0.159     -45.518
  H       -4.457       1.662     -44.503
  H        0.738       7.261     -49.039
  H       -2.853       2.242     -42.660
  H        0.363       8.225     -47.640
  H       -3.054       0.497     -42.914
  P       -5.225      -0.537     -46.058
  C       -7.029       0.847     -44.788
  O       -6.654       0.184     -45.977
  O       -4.826      -0.647     -44.507
  O       -5.177      -1.886     -46.698
  H       -5.099      -1.519     -44.168
  H       -7.475       1.810     -45.049
  H       -6.180       1.023     -44.124
  H       -7.774       0.243     -44.263
  H        0.663       4.801     -41.375
  H        0.638       3.448     -40.270
  H       -0.859       4.073     -40.919

 3  4  5  6  7  8  9  10  11  12  13  24  27  28  29  30  32 0
 6-311+G(2d,p)
 ****
 34  35 0
 6-311+G(2d,p)
 ****
 1  2  14  15  16  17  18  19  20  21  22  23  25  26 0
 3-21G
 ****
 31  33  36  37  38  39  40  41  42  43  44  45  46 0
 3-21G
 ****


