%nproc=1
%NoSave
%Mem=1900MB
#P OB98/GEN NMR

erre ene a

0 1
  C      -74.394      61.475    -109.076
  O      -75.493      61.790    -109.933
  P      -75.738      60.909    -111.248
  C      -78.316      60.883    -111.266
  O      -77.136      61.338    -111.909
  C      -79.552      61.636    -111.782
  O      -79.670      62.912    -111.097
  C      -79.497      61.914    -113.291
  O      -80.679      61.506    -113.979
  C      -79.161      63.392    -113.368
  O      -79.564      63.989    -114.591
  C      -79.793      63.950    -112.087
  N      -79.157      65.200    -111.662
  C      -79.838      66.375    -111.947
  O      -80.886      66.406    -112.592
  N      -79.246      67.533    -111.520
  C      -78.026      67.630    -110.919
  O      -77.516      68.695    -110.597
  C      -77.320      66.358    -110.700
  C      -77.910      65.221    -111.075
  O      -75.538      59.439    -111.091
  O      -74.671      61.515    -112.286
  H      -80.546      64.000    -114.622
  H      -74.304      60.774    -112.806
  H      -79.738      68.394    -111.704
  H      -76.341      66.398    -110.246
  H      -77.408      64.273    -110.938
  H      -80.857      64.161    -112.234
  H      -78.072      63.502    -113.298
  H      -78.700      61.337    -113.773
  H      -80.428      61.029    -111.537
  H      -78.229      61.043    -110.191
  H      -78.413      59.801    -111.406
  P      -80.855      60.102    -114.725
  C      -83.225      59.659    -113.775
  O      -82.420      59.831    -114.923
  O      -80.088      58.960    -114.150
  O      -80.345      60.418    -116.211
  H      -79.827      59.660    -116.540
  H      -84.138      59.132    -114.065
  H      -83.497      60.638    -113.371
  H      -82.708      59.075    -113.010
  H      -74.378      62.157    -108.252
  H      -73.479      61.557    -109.625
  H      -74.502      60.475    -108.710

 3  4  5  6  7  8  9  10  11  12  13  23  28  29  30  31  32 0
 6-311+G(2d,p)
 ****
 33  34 0
 6-311+G(2d,p)
 ****
 1  2  14  15  16  17  18  19  20  21  22  24  25  26  27 0
 3-21G
 ****
 35  36  37  38  39  40  41  42  43  44  45 0
 3-21G
 ****


