%nproc=1
%NoSave
%Mem=1900MB
#P OB98/GEN NMR

erre ene a

0 1
  C      226.801    -275.668     273.746
  O      226.660    -275.163     272.416
  P      227.493    -275.897     271.251
  C      227.169    -278.162     269.974
  O      226.635    -277.193     270.868
  C      226.285    -279.409     269.957
  O      226.150    -279.955     271.297
  C      224.867    -279.156     269.480
  O      224.814    -278.985     268.071
  C      224.160    -280.409     269.993
  O      224.399    -281.519     269.110
  C      224.879    -280.648     271.339
  N      224.087    -280.237     272.491
  C      223.209    -281.194     272.996
  O      223.079    -282.317     272.505
  N      222.471    -280.813     274.083
  C      222.498    -279.587     274.681
  O      221.819    -279.309     275.662
  C      223.407    -278.601     274.074
  C      224.149    -278.961     273.022
  O      228.736    -276.469     272.077
  O      227.842    -274.986     270.122
  H      228.498    -276.750     272.979
  H      223.943    -281.304     268.271
  H      221.838    -281.500     274.473
  H      223.435    -277.603     274.507
  H      224.824    -278.252     272.557
  H      225.122    -281.714     271.452
  H      223.077    -280.278     270.072
  H      224.452    -278.266     269.977
  H      226.773    -280.164     269.325
  H      228.182    -278.442     270.283
  H      227.241    -277.716     268.976
  P      225.118    -277.505     267.510
  C      227.304    -276.168     266.992
  O      226.711    -277.329     267.534
  O      224.607    -276.602     268.727
  O      224.453    -277.216     266.203
  H      224.886    -276.940     269.595
  H      228.314    -276.067     267.400
  H      226.737    -275.270     267.235
  H      227.378    -276.272     265.903
  H      226.196    -275.090     274.413
  H      227.826    -275.601     274.046
  H      226.487    -276.690     273.775

 3  4  5  6  7  8  9  10  11  12  13  24  28  29  30  31  32 0
 6-311+G(2d,p)
 ****
 33  34 0
 6-311+G(2d,p)
 ****
 1  2  14  15  16  17  18  19  20  21  22  23  25  26  27 0
 3-21G
 ****
 35  36  37  38  39  40  41  42  43  44  45 0
 3-21G
 ****


