%nproc=1
%NoSave
%Mem=1900MB
#P OB98/GEN NMR

erre ene a

0 1
  C      799.434    -138.734    1328.618
  O      799.360    -139.493    1327.429
  H      798.433    -138.642    1329.046
  H      799.811    -137.725    1328.397
  H      800.090    -139.228    1329.339
  P      800.708    -139.653    1326.578
  C      800.644    -142.250    1326.600
  O      801.343    -141.070    1326.977
  C      801.544    -143.123    1325.728
  O      802.818    -143.339    1326.394
  C      800.995    -144.506    1325.436
  O      800.003    -144.503    1324.423
  C      802.250    -145.247    1325.018
  O      802.544    -145.048    1323.632
  C      803.332    -144.608    1325.915
  N      803.724    -145.487    1327.011
  C      804.410    -146.630    1326.652
  O      804.679    -146.914    1325.483
  N      804.731    -147.485    1327.678
  C      804.404    -147.312    1328.990
  O      804.680    -148.151    1329.851
  C      803.666    -146.086    1329.316
  C      803.350    -145.243    1328.334
  O      801.698    -138.590    1327.253
  O      800.557    -139.420    1325.113
  H      801.801    -137.819    1326.665
  H      803.436    -145.416    1323.495
  H      805.234    -148.323    1327.430
  H      803.383    -145.926    1330.344
  H      802.800    -144.331    1328.549
  H      804.229    -144.370    1325.333
  H      802.145    -146.316    1325.182
  H      800.605    -144.958    1326.367
  H      801.740    -142.584    1324.781
  H      799.742    -141.988    1326.025
  H      800.333    -142.787    1327.502
  P      798.597    -145.205    1324.743
  C      797.418    -142.840    1324.729
  O      797.684    -144.062    1325.411
  O      798.997    -146.165    1325.968
  O      797.997    -145.904    1323.562
  H      799.773    -145.808    1326.462
  H      796.796    -142.219    1325.339
  H      796.918    -143.048    1323.806
  H      798.340    -142.335    1324.529

 6  7  8  9  10  11  12  13  14  15  16  27  31  32  33  34  35 0
 6-311+G(2d,p)
 ****
 36  37 0
 6-311+G(2d,p)
 ****
 1  2  3  4  5  17  18  19  20  21  22  23  24  25 0
 3-21G
 ****
 26  28  29  30  38  39  40  41  42  43  44  45 0
 3-21G
 ****


