%nproc=1
%NoSave
%Mem=1900MB
#P OB98/GEN NMR

erre ene a

0 1
  C       24.333     637.543     -67.862
  O       23.453     638.241     -68.714
  H       23.763     637.135     -67.023
  H       25.095     638.221     -67.469
  H       24.813     636.715     -68.397
  P       24.047     638.792     -70.102
  C       23.522     636.771     -71.645
  O       24.514     637.504     -70.944
  C       23.973     636.499     -73.083
  O       25.246     635.800     -73.047
  C       22.989     635.650     -73.887
  O       22.952     636.138     -75.232
  C       23.610     634.263     -73.873
  O       23.204     633.461     -74.979
  C       25.108     634.596     -73.832
  N       25.883     633.494     -73.271
  C       26.260     632.477     -74.157
  O       25.929     632.533     -75.341
  N       26.950     631.394     -73.671
  C       27.172     631.293     -72.395
  N       27.831     630.185     -71.970
  C       26.734     632.307     -71.418
  C       26.110     633.373     -71.918
  O       25.430     639.467     -69.668
  O       23.163     639.733     -70.848
  H       22.233     633.553     -75.082
  H       25.648     640.227     -70.240
  H       26.913     632.166     -70.358
  H       25.742     634.170     -71.276
  H       25.480     634.815     -74.840
  H       23.314     633.740     -72.951
  H       21.976     635.655     -73.476
  H       24.154     637.467     -73.574
  H       28.099     629.499     -72.673
  H       22.598     637.355     -71.671
  H       28.018     629.977     -70.997
  H       23.331     635.830     -71.122
  P       21.590     635.913     -76.047
  C       21.467     638.337     -76.972
  O       20.848     637.327     -76.184
  O       20.676     635.099     -75.017
  O       21.775     635.167     -77.329
  H       20.583     634.170     -75.312
  H       20.857     639.216     -76.968
  H       21.580     637.986     -77.976
  H       22.429     638.568     -76.564

 6  7  8  9  10  11  12  13  14  15  16  26  30  31  32  33  35 0
 6-311+G(2d,p)
 ****
 37  38 0
 6-311+G(2d,p)
 ****
 1  2  3  4  5  17  18  19  20  21  22  23  24  25 0
 3-21G
 ****
 27  28  29  34  36  39  40  41  42  43  44  45  46 0
 3-21G
 ****


