%nproc=1
%NoSave
%Mem=1900MB
#P OB98/GEN NMR

erre ene a

0 1
  C      206.289    -109.390    -255.523
  O      204.996    -109.906    -255.775
  H      206.260    -108.820    -254.590
  H      206.611    -108.728    -256.330
  H      207.002    -110.211    -255.408
  P      204.707    -110.544    -257.219
  C      202.890    -108.958    -258.136
  O      203.162    -110.217    -257.528
  C      201.539    -108.966    -258.851
  O      201.552    -109.903    -259.949
  C      200.376    -109.409    -257.976
  O      200.058    -108.522    -256.928
  C      199.317    -109.748    -259.013
  O      198.612    -108.595    -259.471
  C      200.184    -110.328    -260.158
  N      200.081    -111.778    -260.253
  C      199.201    -112.265    -261.214
  O      198.519    -111.542    -261.940
  N      199.099    -113.627    -261.294
  C      199.740    -114.526    -260.494
  O      199.591    -115.738    -260.603
  C      200.630    -113.952    -259.470
  C      200.756    -112.626    -259.398
  O      205.063    -111.994    -257.370
  O      205.487    -109.579    -258.228
  H      197.833    -108.914    -259.965
  H      205.591    -110.002    -259.117
  H      198.477    -114.000    -261.995
  H      201.147    -114.635    -258.811
  H      201.409    -112.177    -258.653
  H      199.872    -109.902    -261.122
  H      198.573    -110.450    -258.629
  H      200.651    -110.356    -257.494
  H      201.368    -107.969    -259.269
  H      203.683    -108.761    -258.866
  H      202.909    -108.172    -257.373
  P      200.639    -108.652    -255.450
  C      198.245    -108.963    -254.446
  O      199.484    -108.263    -254.410
  O      202.008    -108.103    -255.218
  O      200.724    -110.255    -255.273
  H      201.504    -110.444    -254.712
  H      197.595    -108.577    -253.689
  H      198.418    -110.004    -254.271
  H      197.790    -108.834    -255.406

 6  7  8  9  10  11  12  13  14  15  16  26  31  32  33  34  35 0
 6-311+G(2d,p)
 ****
 36  37 0
 6-311+G(2d,p)
 ****
 1  2  3  4  5  17  18  19  20  21  22  23  24  25 0
 3-21G
 ****
 27  28  29  30  38  39  40  41  42  43  44  45 0
 3-21G
 ****


