%nproc=1
%NoSave
%Mem=1900MB
#P OB98/GEN NMR

erre ene a

0 1
  C      311.364     421.233    -452.120
  O      310.353     421.018    -451.154
  H      311.186     420.603    -452.999
  H      311.340     422.280    -452.430
  H      312.347     421.012    -451.695
  P      310.222     419.535    -450.558
  C      311.039     419.929    -448.122
  O      311.344     419.423    -449.415
  C      311.065     418.795    -447.102
  O      310.080     417.798    -447.450
  C      312.398     418.055    -447.029
  O      313.348     418.737    -446.234
  C      311.957     416.759    -446.365
  O      311.759     416.975    -444.956
  C      310.608     416.494    -447.059
  N      309.006     412.171    -449.271
  C      308.730     412.727    -448.074
  N      309.206     413.881    -447.555
  C      310.043     414.476    -448.417
  C      310.426     414.030    -449.665
  C      309.862     412.818    -450.100
  N      310.151     412.238    -451.318
  N      311.335     414.896    -450.243
  C      311.473     415.869    -449.363
  N      310.718     415.656    -448.236
  O      310.803     418.607    -451.726
  O      308.853     419.127    -450.131
  H      312.622     417.258    -444.594
  H      310.482     417.691    -451.616
  H      308.039     412.167    -447.445
  H      312.099     416.742    -449.493
  H      309.876     416.031    -446.389
  H      312.687     415.957    -446.471
  H      312.792     417.833    -448.022
  H      310.792     419.210    -446.124
  H      310.041     420.380    -448.138
  H      309.842     411.289    -451.453
  H      310.899     412.635    -451.871
  H      311.770     420.699    -447.853
  P      314.899     418.404    -446.478
  C      315.419     420.567    -447.828
  O      315.291     419.142    -447.847
  O      314.871     416.856    -446.883
  O      315.787     418.672    -445.307
  H      315.719     416.426    -446.668
  H      315.682     420.915    -448.805
  H      316.182     420.847    -447.132
  H      314.488     421.005    -447.532

 6  7  8  9  10  11  12  13  14  15  25  28  32  33  34  35 0
 6-311+G(2d,p)
 ****
 36  39  40 0
 6-311+G(2d,p)
 ****
 1  2  3  4  5  16  17  18  19  20  21  22  23  24 0
 3-21G
 ****
 26  27  29  30  31  37  38  41  42  43  44  45  46  47 0
 3-21G
 ****
 48 0
 3-21G
 ****


