%nproc=1
%NoSave
%Mem=1900MB
#P OB98/GEN NMR

erre ene a

0 1
  C       10.857     109.444      98.605
  O       10.671     110.650      97.890
  H       10.107     108.721      98.273
  H       10.728     109.612      99.679
  H       11.850     109.032      98.411
  P       11.652     111.876      98.204
  C        9.715     113.570      98.001
  O       10.730     113.027      98.834
  C        8.460     113.852      98.820
  O        7.888     112.621      99.306
  C        8.706     114.729     100.050
  O        8.762     116.097      99.680
  C        7.482     114.383     100.882
  O        6.328     115.069     100.360
  C        7.358     112.869     100.636
  N        7.701     111.360     105.465
  C        6.850     112.279     104.880
  N        5.998     112.915     105.712
  N        6.852     112.561     103.602
  C        7.803     111.896     102.911
  C        8.715     110.975     103.381
  C        8.671     110.630     104.782
  O        9.393     109.809     105.339
  N        9.570     110.565     102.390
  C        9.151     111.205     101.316
  N        8.090     112.039     101.581
  O       12.513     112.345      97.070
  O       12.520     111.374      99.450
  H        6.529     116.021     100.395
  H       13.348     110.951      99.156
  H        7.666     111.198     106.459
  H        9.580     111.102     100.326
  H        6.318     112.530     100.649
  H        7.584     114.663     101.932
  H        6.151     112.947     106.711
  H        9.600     114.418     100.598
  H        5.400     113.628     105.312
  H        7.718     114.313      98.155
  H        9.503     112.838      97.216
  H       10.061     114.498      97.532
  P       10.035     117.004     100.050
  C        8.652     118.242     101.845
  O        9.799     117.450     101.572
  O       10.303     118.127      99.106
  O       11.242     115.966     100.177
  H       11.710     115.793      99.324
  H        8.615     118.468     102.890
  H        7.771     117.703     101.565
  H        8.706     119.152     101.285

 6  7  8  9  10  11  12  13  14  15  26  29  33  34 0
 6-311+G(2d,p)
 ****
 36  38  39  40  41 0
 6-311+G(2d,p)
 ****
 1  2  3  4  5  16  17  18  19  20  21  22  23  24  25 0
 3-21G
 ****
 27  28  30  31  32  35  37  42  43  44  45  46  47 0
 3-21G
 ****
 48  49 0
 3-21G
 ****


