%nproc=1
%NoSave
%Mem=1900MB
#P OB98/GEN NMR

erre ene a

0 1
  C     -899.280     515.125    -916.977
  O     -897.960     514.618    -916.967
  H     -899.420     515.782    -916.111
  H     -900.000     514.300    -916.903
  H     -899.470     515.692    -917.893
  P     -897.500     513.768    -918.245
  C     -896.200     515.809    -919.284
  O     -897.210     514.813    -919.429
  C     -895.110     515.599    -920.341
  O     -895.680     515.282    -921.625
  C     -894.270     516.841    -920.615
  O     -893.400     517.153    -919.554
  C     -893.570     516.416    -921.899
  O     -892.460     515.542    -921.609
  C     -894.700     515.654    -922.626
  N     -895.290     516.425    -923.698
  C     -895.410     515.776    -924.945
  O     -895.010     514.622    -925.078
  N     -895.930     516.480    -926.002
  C     -896.320     517.715    -925.854
  N     -896.810     518.341    -926.927
  C     -896.250     518.413    -924.550
  C     -895.730     517.736    -923.532
  O     -898.870     513.068    -918.705
  O     -896.370     512.818    -918.002
  H     -891.820     516.079    -921.098
  H     -899.590     513.697    -918.843
  H     -896.590     519.435    -924.462
  H     -895.630     518.184    -922.554
  H     -894.320     514.720    -923.056
  H     -893.160     517.272    -922.447
  H     -894.940     517.688    -920.860
  H     -894.470     514.743    -920.019
  H     -896.830     517.839    -927.810
  H     -895.760     515.786    -918.271
  H     -897.110     519.314    -926.944
  H     -896.670     516.783    -919.412
  P     -893.280     518.680    -919.017
  C     -893.810     517.850    -916.621
  O     -894.190     518.752    -917.691
  O     -893.580     519.723    -920.032
  O     -891.800     518.732    -918.431
  H     -891.610     518.105    -917.705
  H     -894.475     517.979    -915.793
  H     -892.809     518.066    -916.311
  H     -893.865     516.840    -916.969

 6  7  8  9  10  11  12  13  14  15  16  26  30  31  32  33  35 0
 6-311+G(2d,p)
 ****
 37  38 0
 6-311+G(2d,p)
 ****
 1  2  3  4  5  17  18  19  20  21  22  23  24  25 0
 3-21G
 ****
 27  28  29  34  36  39  40  41  42  43  44  45  46 0
 3-21G
 ****


