%nproc=1
%NoSave
%Mem=1900MB
#P OB98/GEN NMR

erre ene a

0 1
  C      -93.359     -42.557     -81.181
  O      -94.305     -43.634     -81.147
  P      -95.859     -43.438     -81.491
  C      -97.602     -45.303     -81.865
  O      -96.683     -44.704     -80.956
  C      -98.196     -46.597     -81.299
  O      -97.156     -47.554     -81.024
  C      -98.953     -46.432     -79.988
  O     -100.228     -45.854     -80.201
  C      -98.979     -47.871     -79.482
  O     -100.043     -48.616     -80.095
  C      -97.605     -48.396     -79.944
  N      -96.631     -48.442     -78.862
  C      -97.030     -49.091     -77.690
  O      -98.172     -49.540     -77.582
  N      -96.130     -49.193     -76.656
  C      -94.965     -48.631     -76.757
  N      -94.114     -48.771     -75.706
  C      -94.540     -47.860     -77.940
  C      -95.413     -47.809     -78.943
  O      -96.126     -43.099     -82.922
  O      -96.348     -42.248     -80.537
  H     -100.009     -49.514     -79.713
  H      -97.063     -41.755     -80.983
  H      -93.573     -47.383     -77.973
  H      -95.177     -47.271     -79.854
  H      -97.704     -49.404     -80.367
  H      -99.126     -47.932     -78.399
  H      -98.366     -45.815     -79.296
  H      -98.853     -47.027     -82.068
  H      -94.434     -49.312     -74.913
  H      -97.067     -45.528     -82.795
  H      -93.186     -48.376     -75.684
  H      -98.398     -44.585     -82.085
  P     -100.470     -44.311     -79.852
  C     -102.138     -42.652     -80.880
  O     -101.957     -43.937     -80.315
  O      -99.406     -43.370     -80.313
  O     -100.588     -44.298     -78.253
  H     -100.247     -43.449     -77.918
  H     -103.039     -42.665     -81.499
  H     -101.283     -42.370     -81.500
  H     -102.266     -41.919     -80.079
  H      -92.390     -42.925     -80.916
  H      -93.655     -41.800     -80.485
  H      -93.326     -42.142     -82.167

 3  4  5  6  7  8  9  10  11  12  13  23  27  28  29  30  32 0
 6-311+G(2d,p)
 ****
 34  35 0
 6-311+G(2d,p)
 ****
 1  2  14  15  16  17  18  19  20  21  22  24  25  26 0
 3-21G
 ****
 31  33  36  37  38  39  40  41  42  43  44  45  46 0
 3-21G
 ****


