%nproc=1
%NoSave
%Mem=1900MB
#P OB98/GEN NMR

erre ene a

0 1
  C      423.661    -375.165     354.861
  O      422.344    -375.554     354.514
  P      421.905    -375.704     352.985
  C      420.195    -377.555     353.725
  O      420.481    -376.421     352.936
  C      418.683    -377.615     353.980
  O      417.971    -377.708     352.728
  C      418.306    -378.826     354.827
  O      418.233    -378.474     356.200
  C      416.969    -379.238     354.239
  O      415.913    -378.422     354.772
  C      417.181    -378.922     352.736
  N      417.876    -379.925     351.909
  C      417.276    -381.158     351.670
  O      416.165    -381.470     352.084
  N      418.023    -382.047     350.940
  C      419.259    -381.810     350.406
  O      420.006    -382.680     349.972
  C      419.708    -380.418     350.468
  C      419.024    -379.559     351.219
  O      422.902    -376.823     352.431
  O      421.964    -374.447     352.175
  H      416.002    -378.433     355.742
  H      423.649    -376.414     351.951
  H      417.653    -382.996     350.879
  H      420.617    -380.150     349.935
  H      419.365    -378.528     351.306
  H      416.226    -378.705     352.244
  H      416.723    -380.266     354.496
  H      419.025    -379.642     354.666
  H      418.371    -376.686     354.480
  H      420.741    -377.505     354.669
  H      420.526    -378.463     353.206
  P      418.360    -379.617     357.315
  C      418.633    -377.655     358.940
  O      417.997    -378.894     358.700
  O      419.638    -380.386     357.307
  O      417.100    -380.560     357.017
  H      417.379    -381.334     356.485
  H      418.171    -377.187     359.817
  H      418.517    -376.989     358.081
  H      419.692    -377.816     359.145
  H      423.752    -375.123     355.926
  H      423.869    -374.200     354.447
  H      424.358    -375.878     354.471

 3  4  5  6  7  8  9  10  11  12  13  23  28  29  30  31  32 0
 6-311+G(2d,p)
 ****
 33  34 0
 6-311+G(2d,p)
 ****
 1  2  14  15  16  17  18  19  20  21  22  24  25  26  27 0
 3-21G
 ****
 35  36  37  38  39  40  41  42  43  44  45 0
 3-21G
 ****


