%nproc=1
%NoSave
%Mem=1900MB
#P OB98/GEN NMR

erre ene a

0 1
  C      342.941    -514.684     170.321
  O      342.786    -514.415     171.699
  H      343.712    -514.020     169.921
  H      342.006    -514.490     169.791
  H      343.253    -515.718     170.158
  P      341.834    -515.367     172.567
  C      343.022    -514.769     174.778
  O      341.798    -514.762     174.053
  C      343.213    -513.432     175.487
  O      343.553    -512.407     174.527
  C      341.966    -512.927     176.196
  O      341.731    -513.628     177.400
  C      342.304    -511.455     176.360
  O      343.150    -511.247     177.499
  C      343.074    -511.152     175.054
  N      342.239    -510.452     174.077
  C      342.173    -509.072     174.203
  O      342.780    -508.436     175.064
  N      341.330    -508.431     173.327
  C      340.468    -509.047     172.466
  O      339.564    -508.455     171.888
  C      340.624    -510.498     172.335
  C      341.479    -511.131     173.144
  O      342.128    -516.827     172.486
  O      340.367    -515.034     172.013
  H      340.087    -515.747     171.407
  H      342.673    -511.635     178.263
  H      341.247    -507.432     173.438
  H      340.005    -511.015     171.609
  H      341.589    -512.212     173.088
  H      343.955    -510.537     175.262
  H      341.411    -510.847     176.492
  H      341.097    -513.017     175.527
  H      344.050    -513.530     176.191
  H      343.845    -514.933     174.072
  H      343.003    -515.594     175.500
  P      340.320    -514.351     177.652
  C      341.117    -515.547     179.786
  O      340.179    -514.633     179.226
  O      340.041    -515.525     176.776
  O      339.245    -513.187     177.406
  H      338.559    -513.517     176.790
  H      340.927    -515.656     180.833
  H      342.109    -515.174     179.640
  H      341.019    -516.498     179.305

 6  7  8  9  10  11  12  13  14  15  16  27  31  32  33  34  35 0
 6-311+G(2d,p)
 ****
 36  37 0
 6-311+G(2d,p)
 ****
 1  2  3  4  5  17  18  19  20  21  22  23  24  25 0
 3-21G
 ****
 26  28  29  30  38  39  40  41  42  43  44  45 0
 3-21G
 ****


