%nproc=1
%NoSave
%Mem=1900MB
#P OB98/GEN NMR

erre ene a

0 1
  C       20.980    -194.735      18.466
  O       21.441    -193.782      17.534
  H       21.087    -194.314      19.472
  H       21.572    -195.651      18.412
  H       19.924    -194.959      18.294
  P       21.577    -194.208      15.989
  C       19.568    -192.991      14.948
  O       20.975    -192.958      15.162
  C       19.070    -191.705      14.285
  O       19.170    -190.604      15.226
  C       19.856    -191.312      13.027
  O       18.939    -190.961      11.987
  C       20.652    -190.090      13.467
  O       21.007    -189.255      12.368
  C       19.702    -189.476      14.502
  N       20.362    -188.525      15.391
  C       20.150    -187.167      15.122
  O       19.463    -186.828      14.155
  N       20.745    -186.232      15.926
  C       21.533    -186.613      16.884
  N       22.101    -185.634      17.641
  C       21.825    -188.032      17.175
  C       21.207    -188.925      16.400
  O       20.975    -195.530      15.651
  O       23.144    -194.119      15.683
  H       20.185    -188.857      12.002
  H       23.352    -194.655      14.880
  H       22.495    -188.301      17.977
  H       21.354    -189.994      16.547
  H       18.864    -188.964      14.006
  H       21.578    -190.414      13.959
  H       20.510    -192.101      12.660
  H       18.001    -191.823      14.067
  H       21.876    -184.675      17.410
  H       19.070    -193.142      15.913
  H       22.735    -185.815      18.406
  H       19.343    -193.841      14.291
  P       18.296    -192.186      11.167
  C       16.295    -193.228      12.442
  O       16.729    -192.244      11.517
  O       18.901    -193.471      11.904
  O       18.626    -192.173       9.710
  H       19.645    -193.837      11.388
  H       15.237    -193.149      12.577
  H       16.786    -193.077      13.380
  H       16.535    -194.201      12.066

 6  7  8  9  10  11  12  13  14  15  16  26  30  31  32  33  35 0
 6-311+G(2d,p)
 ****
 37  38 0
 6-311+G(2d,p)
 ****
 1  2  3  4  5  17  18  19  20  21  22  23  24  25 0
 3-21G
 ****
 27  28  29  34  36  39  40  41  42  43  44  45  46 0
 3-21G
 ****


