%nproc=1
%NoSave
%Mem=1900MB
#P OB98/GEN NMR

erre ene a

0 1
  C     -176.912     -45.970    -161.679
  O     -177.775     -46.981    -161.199
  H     -177.027     -45.894    -162.764
  H     -175.873     -46.225    -161.453
  H     -177.166     -45.007    -161.227
  P     -177.790     -47.225    -159.612
  C     -179.193     -45.057    -159.295
  O     -178.024     -45.788    -158.938
  C     -179.986     -44.710    -158.038
  O     -179.118     -44.054    -157.086
  C     -181.142     -43.743    -158.274
  O     -182.279     -44.395    -158.813
  C     -181.364     -43.198    -156.870
  O     -182.184     -44.073    -156.087
  C     -179.940     -43.162    -156.298
  N     -178.873     -39.097    -153.410
  C     -179.373     -40.316    -153.106
  N     -179.611     -41.355    -153.937
  C     -179.265     -41.041    -155.195
  C     -178.753     -39.840    -155.657
  C     -178.550     -38.832    -154.698
  N     -178.076     -37.581    -155.013
  N     -178.566     -39.885    -157.025
  C     -178.953     -41.092    -157.384
  N     -179.380     -41.825    -156.311
  O     -176.255     -47.552    -159.288
  O     -178.705     -48.308    -159.142
  H     -182.163     -43.731    -155.172
  H     -176.120     -48.517    -159.283
  H     -179.619     -40.477    -152.060
  H     -178.954     -41.476    -158.398
  H     -179.901     -43.522    -155.263
  H     -181.858     -42.224    -156.894
  H     -180.820     -42.921    -158.928
  H     -180.347     -45.643    -157.583
  H     -179.813     -45.672    -159.957
  H     -178.892     -44.149    -159.824
  H     -177.977     -36.900    -154.276
  H     -177.932     -37.339    -155.987
  P     -183.270     -43.556    -159.748
  C     -182.597     -44.788    -161.937
  O     -182.661     -43.557    -161.231
  O     -183.057     -42.048    -159.248
  O     -184.703     -43.974    -159.667
  H     -183.777     -41.783    -158.651
  H     -182.170     -44.623    -162.904
  H     -183.583     -45.188    -162.047
  H     -181.990     -45.480    -161.392

 6  7  8  9  10  11  12  13  14  15  25  28  32  33  34  35 0
 6-311+G(2d,p)
 ****
 36  37  40 0
 6-311+G(2d,p)
 ****
 1  2  3  4  5  16  17  18  19  20  21  22  23  24 0
 3-21G
 ****
 26  27  29  30  31  38  39 41  42  43  44  45  46  47  48 0
 3-21G
 ****


