%nproc=1
%NoSave
%Mem=1900MB
#P OB98/GEN NMR

erre ene a

0 1
  C     -481.217     107.312    -528.657
  O     -480.110     106.584    -529.154
  H     -481.946     106.608    -528.248
  H     -481.690     107.877    -529.467
  H     -480.898     107.993    -527.865
  P     -478.933     107.444    -529.825
  C     -477.622     107.750    -527.610
  O     -478.342     108.377    -528.659
  C     -476.184     108.265    -527.568
  O     -475.461     107.854    -528.750
  C     -476.062     109.780    -527.485
  O     -476.206     110.235    -526.152
  C     -474.656     109.994    -528.032
  O     -473.654     109.752    -527.025
  C     -474.579     108.939    -529.145
  N     -472.848     110.208    -533.716
  C     -472.187     109.678    -532.626
  N     -470.851     109.512    -532.759
  N     -472.772     109.352    -531.505
  C     -474.102     109.605    -531.507
  C     -474.877     110.114    -532.526
  C     -474.217     110.440    -533.773
  O     -474.759     110.851    -534.795
  N     -476.192     110.207    -532.153
  C     -476.208     109.796    -530.898
  N     -474.961     109.437    -530.456
  O     -479.715     108.480    -530.763
  O     -477.928     106.657    -530.596
  H     -473.754     110.404    -526.311
  H     -479.160     108.696    -531.533
  H     -472.342     110.422    -534.556
  H     -477.087     109.744    -530.274
  H     -473.573     108.520    -529.247
  H     -474.509     111.020    -528.376
  H     -470.316     110.036    -533.439
  H     -476.787     110.267    -528.150
  H     -470.354     109.144    -531.959
  H     -475.692     107.792    -526.709
  H     -477.609     106.667    -527.781
  H     -478.120     107.954    -526.656
  P     -476.734     111.735    -525.926
  C     -479.227     111.184    -526.434
  O     -478.055     111.888    -526.826
  O     -475.656     112.626    -526.704
  O     -476.872     112.141    -524.499
  H     -475.717     113.555    -526.416
  H     -480.014     111.387    -527.129
  H     -479.524     111.502    -525.456
  H     -479.025     110.133    -526.421

 6  7  8  9  10  11  12  13  14  15  26  29  33  34 0
 6-311+G(2d,p)
 ****
 36  38  39  40  41 0
 6-311+G(2d,p)
 ****
 1  2  3  4  5  16  17  18  19  20  21  22  23  24  25 0
 3-21G
 ****
 27  28  30  31  32  35  37  42  43  44  45  46  47 0
 3-21G
 ****
 48  49 0
 3-21G
 ****


