%nproc=1
%NoSave
%Mem=1900MB
#P OB98/GEN NMR

erre ene a

0 1
  C      796.110    -665.606    -151.803
  O      796.461    -664.267    -152.087
  H      795.465    -666.006    -152.594
  H      797.030    -666.207    -151.761
  H      795.605    -665.672    -150.840
  P      795.236    -663.227    -152.200
  C      796.196    -661.715    -150.318
  O      795.098    -662.508    -150.766
  C      795.854    -661.026    -149.016
  O      794.607    -660.294    -149.212
  C      795.624    -661.965    -147.823
  O      796.402    -661.535    -146.690
  C      794.155    -661.857    -147.473
  O      793.902    -661.968    -146.098
  C      793.817    -660.454    -148.021
  N      789.297    -659.145    -146.058
  C      790.557    -658.822    -145.692
  N      791.729    -659.146    -146.310
  C      791.484    -659.816    -147.458
  C      790.259    -660.186    -147.983
  C      789.123    -659.828    -147.219
  N      787.849    -660.199    -147.569
  N      790.399    -660.864    -149.181
  C      791.728    -660.956    -149.331
  N      792.420    -660.327    -148.324
  O      793.951    -664.193    -152.271
  O      795.310    -662.323    -153.380
  H      794.567    -661.425    -145.615
  H      793.485    -664.034    -153.114
  H      790.639    -658.264    -144.763
  H      792.223    -661.465    -150.149
  H      794.096    -659.658    -147.323
  H      793.622    -662.645    -148.016
  H      795.897    -663.017    -148.071
  H      796.628    -660.304    -148.795
  H      796.440    -660.961    -151.090
  H      787.087    -660.014    -146.913
  H      787.709    -660.808    -148.368
  H      797.064    -662.376    -150.186
  P      797.535    -662.546    -146.179
  C      799.493    -661.297    -147.357
  O      798.759    -662.519    -147.244
  O      796.910    -663.997    -146.382
  O      797.953    -662.332    -144.739
  H      796.871    -664.481    -145.535
  H      800.266    -661.412    -148.087
  H      799.929    -661.054    -146.411
  H      798.832    -660.511    -147.657

 6  7  8  9  10  11  12  13  14  15  25  28  32  33  34  35 0
 6-311+G(2d,p)
 ****
 36  39  40 0
 6-311+G(2d,p)
 ****
 1  2  3  4  5  16  17  18  19  20  21  22  23  24 0
 3-21G
 ****
 26  27  29  30  31  37  38  41  42  43  44  45  46  47  48 0
 3-21G
 ****


