%nproc=1
%NoSave
%Mem=1900MB
#P OB98/GEN NMR

erre ene a

0 1
  C      337.476    -898.970     -56.026
  O      336.407    -898.070     -55.842
  H      337.958    -898.740     -56.984
  H      337.107    -900.000     -56.050
  H      338.221    -898.870     -55.229
  P      335.737    -897.960     -54.389
  C      337.442    -896.200     -53.556
  O      336.887    -897.490     -53.375
  C      338.499    -895.900     -52.488
  O      337.867    -895.940     -51.180
  C      339.611    -896.960     -52.480
  O      340.847    -896.430     -52.012
  C      339.091    -897.980     -51.486
  O      340.127    -898.790     -50.915
  C      338.391    -897.080     -50.473
  N      336.596    -898.680     -45.970
  C      337.850    -898.210     -46.281
  N      338.746    -898.150     -45.267
  N      338.199    -897.850     -47.491
  C      337.231    -898.020     -48.415
  C      335.952    -898.510     -48.232
  C      335.558    -898.870     -46.881
  O      334.477    -899.320     -46.547
  N      335.251    -898.570     -49.410
  C      336.103    -898.110     -50.316
  N      337.309    -897.750     -49.756
  O      335.488    -899.490     -53.970
  O      334.469    -897.150     -54.318
  H      340.589    -899.250     -51.643
  H      334.785    -899.540     -53.288
  H      336.370    -898.910     -45.006
  H      335.889    -898.020     -51.376
  H      339.096    -896.710     -49.713
  H      338.409    -898.660     -51.997
  H      338.570    -898.590     -44.380
  H      339.754    -897.420     -53.456
  H      339.738    -898.100     -45.544
  H      338.885    -894.880     -52.623
  H      336.615    -895.490     -53.497
  H      337.865    -896.110     -54.558
  P      342.028    -896.170     -53.075
  C      341.822    -893.540     -53.138
  O      341.806    -894.790     -53.812
  O      341.739    -897.260     -54.227
  O      343.404    -896.310     -52.520
  H      342.462    -897.920     -54.269
  H      341.649    -892.753     -53.842
  H      342.774    -893.399     -52.671
  H      341.054    -893.527     -52.393

 6  7  8  9  10  11  12  13  14  15  26  29  33  34 0
 6-311+G(2d,p)
 ****
 36  38  39  40  41 0
 6-311+G(2d,p)
 ****
 1  2  3  4  5  16  17  18  19  20  21  22  23  24  25 0
 3-21G
 ****
 27  28  30  31  32  35  37  42  43  44  45  46  47 0
 3-21G
 ****
 48  49 0
 3-21G
 ****


