%nproc=1
%NoSave
%Mem=1900MB
#P OB98/GEN NMR

erre ene a

0 1
  C     -108.141     298.359    -283.701
  O     -107.064     298.355    -282.755
  P     -105.844     297.309    -282.804
  C     -103.823     298.816    -282.253
  O     -104.688     297.785    -281.795
  C     -102.767     299.176    -281.206
  O     -103.363     299.992    -280.148
  C     -102.095     297.967    -280.523
  O     -100.717     298.302    -280.353
  C     -102.830     297.909    -279.189
  O     -102.152     297.156    -278.202
  C     -102.950     299.405    -278.894
  N     -103.879     299.764    -277.823
  C     -103.533     299.405    -276.514
  O     -102.512     298.755    -276.270
  N     -104.374     299.770    -275.491
  C     -105.462     300.425    -275.743
  N     -106.247     300.767    -274.682
  C     -105.874     300.806    -277.108
  C     -105.043     300.450    -278.086
  O     -105.346     297.038    -284.191
  O     -106.408     295.965    -282.141
  H     -106.023     295.191    -282.598
  H     -102.641     297.244    -277.362
  H     -106.788     301.358    -277.272
  H     -105.264     300.720    -279.119
  H     -101.955     299.805    -278.662
  H     -103.808     297.447    -279.348
  H     -102.159     297.044    -281.114
  H     -102.008     299.804    -281.690
  H     -105.921     300.499    -273.756
  H     -104.426     299.702    -282.470
  H     -107.110     301.288    -274.768
  H     -103.342     298.488    -283.184
  P      -99.586     297.396    -281.034
  C      -98.024     299.347    -281.778
  O      -98.200     298.203    -280.960
  O      -99.956     297.519    -282.589
  O      -99.550     295.954    -280.627
  H      -99.626     296.733    -283.065
  H      -97.571     300.144    -281.181
  H      -98.964     299.711    -282.200
  H      -97.342     299.090    -282.602
  H     -108.825     299.145    -283.459
  H     -108.651     297.419    -283.665
  H     -107.751     298.516    -284.685

 3  4  5  6  7  8  9  10  11  12  13  24  27  28  29  30  32 0
 6-311+G(2d,p)
 ****
 34  35 0
 6-311+G(2d,p)
 ****
 1  2  14  15  16  17  18  19  20  21  22  23  25  26 0
 3-21G
 ****
 31  33  36  37  38  39  40  41  42  43  44  45  46 0
 3-21G
 ****


