%nproc=1
%NoSave
%Mem=1900MB
#P OB98/GEN NMR

erre ene a

0 1
  C      150.687     319.097     334.109
  O      150.822     318.837     335.493
  H      151.681     319.225     333.678
  H      150.114     320.015     333.957
  H      150.188     318.259     333.611
  P      149.491     318.447     336.291
  C      149.261     320.770     337.494
  O      148.704     319.812     336.602
  C      148.274     321.069     338.620
  O      147.073     321.682     338.109
  C      147.772     319.834     339.343
  O      148.753     319.241     340.161
  C      146.601     320.428     340.118
  O      147.053     321.124     341.289
  C      146.023     321.421     339.080
  N      144.811     320.922     338.443
  C      143.654     320.953     339.227
  O      143.695     321.391     340.378
  N      142.486     320.459     338.701
  C      142.471     319.996     337.488
  N      141.286     319.511     337.027
  C      143.663     319.968     336.617
  C      144.788     320.439     337.155
  O      150.053     318.028     337.728
  O      148.637     317.410     335.637
  H      147.225     320.439     341.963
  H      150.621     318.704     338.136
  H      143.599     319.583     335.609
  H      145.707     320.454     336.585
  H      145.787     322.381     339.557
  H      145.900     319.661     340.455
  H      147.368     319.110     338.625
  H      148.753     321.776     339.312
  H      140.495     319.527     337.658
  H      149.534     321.685     336.961
  H      141.163     319.102     336.112
  H      150.181     320.341     337.906
  P      148.732     317.666     340.452
  C      147.845     317.862     342.860
  O      147.569     317.424     341.532
  O      150.050     317.066     340.810
  O      148.081     317.055     339.116
  H      147.187     317.380     338.919
  H      147.004     317.650     343.487
  H      148.031     318.916     342.857
  H      148.707     317.349     343.233

 6  7  8  9  10  11  12  13  14  15  16  26  30  31  32  33  35 0
 6-311+G(2d,p)
 ****
 37  38 0
 6-311+G(2d,p)
 ****
 1  2  3  4  5  17  18  19  20  21  22  23  24  25 0
 3-21G
 ****
 27  28  29  34  36  39  40  41  42  43  44  45  46 0
 3-21G
 ****


