%nproc=1
%NoSave
%Mem=1900MB
#P OB98/GEN NMR

erre ene a

0 1
  C     -789.510    1319.623     562.096
  O     -789.027    1318.637     563.016
  P     -787.894    1319.041     564.071
  C     -786.216    1317.548     562.778
  O     -786.741    1317.926     564.048
  C     -784.799    1316.999     562.925
  O     -783.903    1318.010     563.468
  C     -784.696    1315.836     563.910
  O     -785.305    1314.617     563.497
  C     -783.235    1315.805     564.240
  O     -782.478    1315.116     563.263
  C     -782.873    1317.315     564.224
  N     -782.728    1317.884     565.576
  C     -781.455    1317.869     566.101
  O     -780.476    1317.403     565.520
  N     -781.331    1318.420     567.358
  C     -782.339    1318.913     568.122
  O     -782.178    1319.356     569.248
  C     -783.676    1318.866     567.513
  C     -783.818    1318.357     566.292
  O     -788.380    1319.427     565.440
  O     -787.178    1320.290     563.375
  H     -781.531    1315.225     563.480
  H     -786.998    1320.956     564.065
  H     -780.398    1318.439     567.755
  H     -784.503    1319.247     568.106
  H     -784.801    1318.315     565.823
  H     -781.929    1317.480     563.693
  H     -783.049    1315.308     565.200
  H     -785.241    1316.134     564.826
  H     -784.417    1316.726     561.937
  H     -786.216    1318.423     562.101
  H     -786.886    1316.813     562.318
  P     -786.887    1314.358     563.544
  C     -786.945    1312.566     565.423
  O     -787.128    1312.864     564.047
  O     -787.696    1314.825     562.377
  O     -787.316    1315.215     564.841
  H     -788.210    1315.568     564.689
  H     -787.136    1311.512     565.592
  H     -787.651    1313.157     566.041
  H     -785.905    1312.790     565.717
  H     -790.259    1319.188     561.467
  H     -788.699    1319.976     561.493
  H     -789.933    1320.442     562.640

 3  4  5  6  7  8  9  10  11  12  13  23  28  29  30  31  32 0
 6-311+G(2d,p)
 ****
 33  34 0
 6-311+G(2d,p)
 ****
 1  2  14  15  16  17  18  19  20  21  22  24  25  26  27 0
 3-21G
 ****
 35  36  37  38  39  40  41  42  43  44  45 0
 3-21G
 ****


