%nproc=1
%NoSave
%Mem=1900MB
#P OB98/GEN NMR

erre ene a

0 1
  C       46.774     356.972    -267.887
  O       47.054     356.758    -269.261
  P       47.617     358.007    -270.103
  C       46.126     358.763    -272.097
  O       46.322     358.753    -270.687
  C       45.417     357.485    -272.547
  O       44.245     357.261    -271.747
  C       44.935     357.516    -273.990
  O       46.009     357.299    -274.879
  C       43.900     356.394    -273.980
  O       44.519     355.124    -274.233
  C       43.340     356.462    -272.540
  N       41.986     356.987    -272.491
  C       40.980     356.116    -272.926
  O       41.272     354.984    -273.340
  N       39.676     356.556    -272.930
  C       39.410     357.765    -272.534
  N       38.098     358.143    -272.545
  C       40.441     358.717    -272.088
  C       41.697     358.277    -272.097
  O       48.262     357.316    -271.392
  O       48.589     358.871    -269.368
  H       43.780     354.482    -274.318
  H       48.973     357.871    -271.768
  H       40.160     359.713    -271.767
  H       42.515     358.911    -271.788
  H       43.328     355.458    -272.089
  H       43.141     356.534    -274.759
  H       44.442     358.470    -274.204
  H       46.103     356.635    -272.392
  H       37.413     357.466    -272.860
  H       47.097     358.822    -272.606
  H       37.786     359.051    -272.235
  H       45.537     359.644    -272.368
  P       45.923     357.969    -276.334
  C       45.308     356.158    -278.043
  O       44.820     357.109    -277.118
  O       47.284     357.473    -277.015
  O       45.767     359.451    -276.390
  H       47.385     357.908    -277.884
  H       44.472     355.537    -278.377
  H       46.055     355.509    -277.569
  H       45.740     356.666    -278.904
  H       46.409     356.065    -267.452
  H       46.033     357.738    -267.789
  H       47.668     357.274    -267.384

 3  4  5  6  7  8  9  10  11  12  13  21  23  27  28  29  30  32 0
 6-311+G(2d,p)
 ****
 34  35 0
 6-311+G(2d,p)
 ****
 1  2  14  15  16  17  18  19  20  22  24  25  26 0
 3-21G
 ****
 31  33  36  37  38  39  40  41  42  43  44  45  46 0
 3-21G
 ****


