%nproc=1
%NoSave
%Mem=1900MB
#P OB98/GEN NMR

erre ene a

0 1
  C      984.833     498.209    1332.435
  O      985.191     499.572    1332.558
  H      984.055     498.100    1331.676
  H      985.717     497.630    1332.126
  H      984.476     497.811    1333.387
  P      984.154     500.550    1333.283
  C      982.474     500.673    1331.300
  O      983.409     501.377    1332.116
  C      981.518     501.665    1330.611
  O      980.760     502.359    1331.652
  C      982.226     502.744    1329.743
  O      981.428     502.961    1328.580
  C      982.179     503.966    1330.622
  O      982.219     505.192    1329.885
  C      980.857     503.777    1331.369
  N      980.766     508.523    1333.189
  C      980.513     508.035    1331.954
  N      980.506     506.739    1331.566
  C      980.745     505.922    1332.613
  C      980.993     506.279    1333.920
  C      981.033     507.658    1334.210
  N      981.364     508.169    1335.443
  N      981.235     505.146    1334.708
  C      981.125     504.128    1333.869
  N      980.833     504.550    1332.590
  O      985.113     501.635    1333.960
  O      983.253     499.896    1334.287
  H      981.930     505.914    1330.479
  H      985.388     501.326    1334.831
  H      980.293     508.751    1331.195
  H      981.305     503.089    1334.124
  H      979.988     504.068    1330.770
  H      983.024     503.963    1331.335
  H      983.241     502.451    1329.449
  H      980.806     501.098    1330.020
  H      981.902     499.997    1331.930
  H      981.451     509.177    1335.502
  H      981.662     507.537    1336.162
  H      983.022     500.090    1330.541
  P      981.193     501.721    1327.597
  C      983.510     501.938    1326.386
  O      982.072     501.931    1326.272
  O      979.690     501.926    1327.075
  O      981.362     500.372    1328.266
  H      979.260     501.072    1326.920
  H      983.944     502.088    1325.419
  H      983.841     501.002    1326.784
  H      983.812     502.730    1327.039

 6  7  8  9  10  11  12  13  14  15  25  28  32  33  34  35 0
 6-311+G(2d,p)
 ****
 36  39  40 0
 6-311+G(2d,p)
 ****
 1  2  3  4  5  16  17  18  19  20  21  22  23  24 0
 3-21G
 ****
 26  27  29  30  31  37  38  41  42  43  44  45  46  47 0
 3-21G
 ****
 48 0
 3-21G
 ****


