%nproc=1
%NoSave
%Mem=1900MB
#P OB98/GEN NMR

erre ene a

0 1
  C      122.138    -146.975     292.891
  O      122.365    -148.271     292.368
  H      121.332    -147.033     293.629
  H      121.830    -146.291     292.093
  H      123.032    -146.590     293.383
  P      123.603    -148.495     291.375
  C      124.376    -147.501     289.122
  O      123.321    -147.614     290.067
  C      123.808    -147.568     287.700
  O      123.244    -146.296     287.326
  C      124.851    -147.907     286.640
  O      125.175    -149.280     286.656
  C      124.134    -147.432     285.385
  O      123.187    -148.417     284.929
  C      123.405    -146.163     285.889
  N      124.118    -144.930     285.549
  C      123.359    -143.921     284.967
  O      122.157    -144.040     284.701
  N      124.030    -142.761     284.664
  C      125.373    -142.569     284.778
  O      125.943    -141.546     284.411
  C      126.132    -143.674     285.379
  C      125.482    -144.787     285.727
  O      123.970    -149.917     291.109
  O      124.802    -147.705     292.088
  H      122.493    -148.467     285.616
  H      125.412    -148.346     292.497
  H      123.499    -142.032     284.228
  H      127.200    -143.559     285.496
  H      126.026    -145.620     286.173
  H      122.395    -146.105     285.465
  H      124.821    -147.246     284.559
  H      125.741    -147.288     286.782
  H      122.997    -148.315     287.696
  H      125.074    -148.331     289.276
  H      124.903    -146.550     289.281
  P      126.392    -149.819     285.770
  C      127.119    -149.748     283.305
  O      126.101    -149.428     284.241
  O      126.773    -151.249     285.996
  O      127.607    -148.843     286.161
  H      128.341    -149.372     286.545
  H      126.813    -149.442     282.327
  H      127.290    -150.804     283.311
  H      128.022    -149.239     283.572

 6  7  8  9  10  11  12  13  14  15  16  26  31  32  33  34  35 0
 6-311+G(2d,p)
 ****
 36  37 0
 6-311+G(2d,p)
 ****
 1  2  3  4  5  17  18  19  20  21  22  23  24  25 0
 3-21G
 ****
 27  28  29  30  38  39  40  41  42  43  44  45 0
 3-21G
 ****


