%nproc=1
%NoSave
%Mem=1900MB
#P OB98/GEN NMR

erre ene a

0 1
  C      255.708      50.790     137.163
  O      256.221      52.067     136.836
  H      256.116      50.486     138.130
  H      256.006      50.059     136.407
  H      254.617      50.828     137.235
  P      255.723      52.708     135.453
  C      255.890      55.235     136.043
  O      255.044      54.114     135.824
  C      255.274      56.143     137.104
  O      255.256      55.461     138.381
  C      256.055      57.429     137.342
  O      255.809      58.403     136.346
  C      255.548      57.827     138.719
  O      254.302      58.529     138.637
  C      255.350      56.473     139.409
  N      256.486      54.938     144.143
  C      255.306      55.076     143.497
  N      255.089      55.480     142.228
  C      256.254      55.726     141.605
  C      257.531      55.627     142.132
  C      257.627      55.208     143.470
  N      258.824      55.091     144.135
  N      258.473      56.004     141.196
  C      257.781      56.317     140.120
  N      256.436      56.161     140.319
  O      254.483      51.780     135.051
  O      256.750      52.762     134.373
  H      253.940      58.551     139.544
  H      254.765      51.131     134.379
  H      254.420      54.840     144.081
  H      258.201      56.665     139.185
  H      254.420      56.434     139.988
  H      256.263      58.477     139.225
  H      257.129      57.210     137.412
  H      254.237      56.362     136.820
  H      255.999      55.796     135.108
  H      256.874      54.880     136.362
  H      258.813      54.852     145.113
  H      259.671      55.401     143.678
  P      257.069      58.977     135.538
  C      256.177      58.677     133.105
  O      257.088      58.250     134.110
  O      258.331      58.352     136.300
  O      257.140      60.465     135.475
  H      259.067      58.993     136.302
  H      256.322      58.092     132.221
  H      256.350      59.709     132.882
  H      255.174      58.551     133.456

 6  7  8  9  10  11  12  13  14  15  25  28  32  33  34  35 0
 6-311+G(2d,p)
 ****
 36  37  40 0
 6-311+G(2d,p)
 ****
 1  2  3  4  5  16  17  18  19  20  21  22  23  24 0
 3-21G
 ****
 26  27  29  30  31  38  39 41  42  43  44  45  46  47  48 0
 3-21G
 ****


