%nproc=1
%NoSave
%Mem=1900MB
#P OB98/GEN NMR

erre ene a

0 1
  C     -375.502    -456.561    -511.416
  O     -376.527    -457.489    -511.690
  H     -375.476    -455.823    -512.226
  H     -374.537    -457.064    -511.366
  H     -375.701    -456.040    -510.472
  P     -376.744    -458.722    -510.685
  C     -376.302    -461.260    -510.854
  O     -375.918    -459.962    -511.284
  C     -376.443    -462.193    -512.059
  O     -377.519    -461.701    -512.887
  C     -375.164    -462.255    -512.914
  O     -374.709    -463.588    -513.139
  C     -375.517    -461.402    -514.127
  O     -374.801    -461.727    -515.300
  C     -377.040    -461.568    -514.239
  N     -377.705    -460.462    -514.923
  C     -377.254    -460.131    -516.194
  O     -376.351    -460.708    -516.801
  N     -377.906    -459.079    -516.802
  C     -378.913    -458.341    -516.260
  O     -379.455    -457.413    -516.853
  C     -379.328    -458.723    -514.905
  C     -378.716    -459.743    -514.301
  O     -378.161    -459.031    -510.332
  O     -375.896    -458.320    -509.385
  H     -375.182    -461.191    -516.028
  H     -376.497    -458.041    -508.674
  H     -377.598    -458.846    -517.726
  H     -380.121    -458.145    -514.439
  H     -378.991    -460.049    -513.297
  H     -377.285    -462.487    -514.781
  H     -375.289    -460.346    -513.887
  H     -374.323    -461.789    -512.386
  H     -376.735    -463.197    -511.703
  H     -377.262    -461.174    -510.329
  H     -375.549    -461.654    -510.160
  P     -373.184    -464.060    -513.067
  C     -371.313    -464.655    -514.823
  O     -372.568    -464.037    -514.545
  O     -372.917    -465.284    -512.248
  O     -372.441    -462.826    -512.342
  H     -371.701    -463.216    -511.825
  H     -371.077    -464.532    -515.859
  H     -371.370    -465.698    -514.592
  H     -370.551    -464.198    -514.227

 6  7  8  9  10  11  12  13  14  15  16  26  31  32  33  34  35 0
 6-311+G(2d,p)
 ****
 36  37 0
 6-311+G(2d,p)
 ****
 1  2  3  4  5  17  18  19  20  21  22  23  24  25 0
 3-21G
 ****
 27  28  29  30  38  39  40  41  42  43  44  45 0
 3-21G
 ****


