%nproc=1
%NoSave
%Mem=1900MB
#P OB98/GEN NMR

erre ene a

0 1
  C      -41.933    -552.065     -33.607
  O      -42.590    -551.255     -34.569
  P      -42.876    -551.915     -36.003
  C      -41.255    -553.171     -37.619
  O      -41.449    -552.108     -36.703
  C      -39.773    -553.269     -37.989
  O      -39.020    -553.809     -36.882
  C      -39.486    -554.174     -39.182
  O      -39.716    -553.478     -40.391
  C      -38.023    -554.533     -38.945
  O      -37.155    -553.471     -39.397
  C      -37.971    -554.672     -37.414
  N      -35.790    -559.210     -36.943
  C      -35.373    -558.095     -37.629
  N      -34.173    -558.182     -38.253
  N      -36.063    -556.978     -37.711
  C      -37.244    -557.038     -37.051
  C      -37.781    -558.089     -36.349
  C      -36.983    -559.293     -36.227
  O      -37.265    -560.275     -35.541
  N      -39.016    -557.786     -35.839
  C      -39.207    -556.531     -36.207
  N      -38.159    -556.029     -36.938
  O      -43.560    -550.722     -36.821
  O      -43.723    -553.149     -35.977
  H      -36.237    -553.697     -39.160
  H      -44.528    -550.817     -36.823
  H      -35.215    -560.029     -36.899
  H      -40.081    -555.948     -35.966
  H      -37.021    -554.317     -37.007
  H      -37.728    -555.433     -39.488
  H      -33.599    -559.011     -38.264
  H      -40.101    -555.080     -39.131
  H      -33.856    -557.371     -38.771
  H      -39.409    -552.254     -38.176
  H      -41.840    -552.981     -38.518
  H      -41.605    -554.110     -37.164
  P      -40.090    -554.348     -41.686
  C      -39.303    -556.708     -42.425
  O      -38.956    -555.469     -41.844
  O      -39.808    -553.343     -42.901
  O      -41.492    -554.852     -41.713
  H      -40.461    -553.493     -43.606
  H      -38.422    -557.115     -42.935
  H      -40.117    -556.606     -43.162
  H      -39.616    -557.405     -41.648
  H      -41.804    -551.510     -32.702
  H      -40.976    -552.361     -33.984
  H      -42.524    -552.935     -33.410

 3  4  5  6  7  8  9  10  11  12  23  26  30  31 0
 6-311+G(2d,p)
 ****
 33  35  36  37  38 0
 6-311+G(2d,p)
 ****
 1  2  13  14  15  16  17  18  19  20  21  22  24  25 0
 3-21G
 ****
 27  28  29  32  34  39  40  41  42  43  44  45  46  47  48  49 0
 3-21G
 ****


