%nproc=1
%NoSave
%Mem=1900MB
#P OB98/GEN NMR

erre ene a

0 1
  C      170.020    -216.121    -234.810
  O      168.651    -216.396    -235.032
  H      170.101    -215.287    -234.109
  H      170.494    -215.833    -235.753
  H      170.529    -216.991    -234.385
  P      168.300    -217.782    -235.764
  C      168.459    -216.681    -238.109
  O      168.936    -217.693    -237.237
  C      168.339    -217.219    -239.530
  O      169.572    -217.853    -239.937
  C      167.240    -218.263    -239.716
  O      165.969    -217.654    -239.917
  C      167.718    -218.955    -240.979
  O      167.417    -218.134    -242.128
  C      169.237    -219.004    -240.760
  N      169.680    -224.046    -241.096
  C      169.068    -223.154    -241.952
  N      168.482    -223.678    -243.051
  N      169.025    -221.858    -241.750
  C      169.631    -221.483    -240.599
  C      170.266    -222.274    -239.667
  C      170.316    -223.698    -239.914
  O      170.857    -224.530    -239.189
  N      170.760    -221.533    -238.625
  C      170.405    -220.296    -238.918
  N      169.714    -220.212    -240.103
  O      166.723    -217.654    -236.021
  O      168.626    -219.013    -234.985
  H      166.445    -218.092    -242.203
  H      166.250    -218.192    -235.355
  H      169.673    -225.034    -241.295
  H      170.628    -219.426    -238.311
  H      169.797    -218.912    -241.698
  H      167.232    -219.920    -241.146
  H      168.458    -224.664    -243.256
  H      167.218    -218.983    -238.887
  H      168.030    -223.041    -243.694
  H      168.177    -216.368    -240.202
  H      169.158    -215.837    -238.098
  H      167.479    -216.337    -237.756
  P      164.742    -218.142    -239.004
  C      164.633    -220.361    -240.339
  O      164.723    -219.746    -239.062
  O      163.468    -217.718    -239.876
  O      164.687    -217.542    -237.638
  H      162.987    -216.991    -239.432
  H      164.631    -221.425    -240.223
  H      165.472    -220.069    -240.935
  H      163.729    -220.053    -240.820

 6  7  8  9  10  11  12  13  14  15  26  29  33  34 0
 6-311+G(2d,p)
 ****
 36  38  39  40  41 0
 6-311+G(2d,p)
 ****
 1  2  3  4  5  16  17  18  19  20  21  22  23  24  25 0
 3-21G
 ****
 27  28  30  31  32  35  37  42  43  44  45  46  47 0
 3-21G
 ****
 48  49 0
 3-21G
 ****


