%nproc=1
%NoSave
%Mem=1900MB
#P OB98/GEN NMR

erre ene a

0 1
  C      -96.635     130.033     -75.027
  O      -95.850     129.374     -74.053
  H      -96.189     131.010     -75.233
  H      -97.657     130.183     -74.670
  H      -96.647     129.454     -75.954
  P      -96.436     128.032     -73.394
  C      -97.410     128.223     -71.010
  O      -97.597     128.517     -72.393
  C      -96.626     129.339     -70.315
  O      -97.234     130.617     -70.589
  C      -96.609     129.223     -68.799
  O      -95.851     128.137     -68.311
  C      -96.259     130.639     -68.366
  O      -94.858     130.892     -68.335
  C      -96.919     131.486     -69.481
  N      -98.093     132.203     -69.001
  C      -97.841     133.366     -68.282
  O      -96.707     133.777     -68.031
  N      -98.941     134.031     -67.816
  C     -100.236     133.625     -67.954
  O     -101.178     134.245     -67.476
  C     -100.440     132.374     -68.701
  C      -99.375     131.729     -69.185
  O      -95.426     127.125     -72.756
  O      -97.251     127.347     -74.587
  H      -94.735     131.776     -67.936
  H      -97.435     126.397     -74.393
  H      -98.778     134.881     -67.302
  H     -101.454     132.020     -68.827
  H      -99.499     130.801     -69.739
  H      -96.206     132.228     -69.864
  H      -96.646     130.860     -67.368
  H      -97.637     129.046     -68.461
  H      -95.609     129.352     -70.722
  H      -96.842     127.289     -70.942
  H      -98.383     128.082     -70.529
  P      -96.073     127.489     -66.868
  C      -94.346     127.878     -64.967
  O      -95.372     128.440     -65.778
  O      -95.883     126.011     -66.757
  O      -97.640     127.793     -66.624
  H      -98.007     127.046     -66.113
  H      -93.975     128.623     -64.294
  H      -93.548     127.532     -65.590
  H      -94.743     127.057     -64.407

 6  7  8  9  10  11  12  13  14  15  16  26  31  32  33  34  35 0
 6-311+G(2d,p)
 ****
 36  37 0
 6-311+G(2d,p)
 ****
 1  2  3  4  5  17  18  19  20  21  22  23  24  25 0
 3-21G
 ****
 27  28  29  30  38  39  40  41  42  43  44  45 0
 3-21G
 ****


