%nproc=1
%NoSave
%Mem=1900MB
#P OB98/GEN NMR

erre ene a

0 1
  C       14.505    -358.211    -488.716
  O       14.016    -356.929    -488.403
  H       13.666    -358.915    -488.697
  H       15.240    -358.533    -487.970
  H       14.952    -358.225    -489.709
  P       15.039    -355.692    -488.313
  C       15.515    -355.929    -485.799
  O       16.050    -356.064    -487.109
  C       16.623    -356.002    -484.747
  O       17.084    -357.379    -484.616
  C       17.860    -355.147    -485.077
  O       18.257    -354.400    -483.916
  C       18.933    -356.165    -485.408
  O       20.261    -355.675    -485.210
  C       18.515    -357.335    -484.493
  N       19.153    -358.584    -484.884
  C       20.483    -358.753    -484.469
  O       21.044    -357.867    -483.816
  N       21.158    -359.879    -484.852
  C       20.576    -360.747    -485.627
  N       21.311    -361.829    -485.986
  C       19.174    -360.599    -486.114
  C       18.534    -359.507    -485.686
  O       14.395    -354.347    -488.199
  O       15.969    -355.837    -489.610
  H       20.314    -355.258    -484.321
  H       16.367    -354.959    -489.815
  H       18.751    -361.346    -486.751
  H       17.512    -359.316    -486.002
  H       18.758    -357.121    -483.447
  H       18.836    -356.468    -486.461
  H       17.697    -354.457    -485.907
  H       16.205    -355.726    -483.764
  H       22.261    -361.891    -485.652
  H       14.776    -356.712    -485.637
  H       20.970    -362.561    -486.610
  H       15.032    -354.948    -485.721
  P       17.761    -352.862    -483.859
  C       20.064    -352.075    -484.794
  O       18.644    -352.025    -484.910
  O       18.279    -352.361    -482.430
  O       16.280    -352.711    -484.003
  H       17.519    -352.227    -481.835
  H       20.506    -351.471    -485.559
  H       20.395    -353.087    -484.902
  H       20.357    -351.705    -483.834

 6  7  8  9  10  11  12  13  14  15  16  26  30  31  32  33  35 0
 6-311+G(2d,p)
 ****
 37  38 0
 6-311+G(2d,p)
 ****
 1  2  3  4  5  17  18  19  20  21  22  23  24  25 0
 3-21G
 ****
 27  28  29  34  36  39  40  41  42  43  44  45  46 0
 3-21G
 ****


