%nproc=1
%NoSave
%Mem=1900MB
#P OB98/GEN NMR

erre ene a

0 1
  C       71.170      52.961     -27.181
  O       69.996      53.111     -27.953
  H       72.013      53.373     -27.741
  H       71.355      51.900     -26.996
  H       71.082      53.497     -26.231
  P       68.598      52.880     -27.199
  C       68.117      50.477     -28.055
  O       68.470      51.298     -26.952
  C       67.110      49.417     -27.624
  O       67.695      48.536     -26.641
  C       65.838      49.977     -26.994
  O       64.895      50.368     -27.982
  C       65.348      48.764     -26.222
  O       64.731      47.827     -27.131
  C       66.660      48.179     -25.682
  N       67.785      46.877     -20.911
  C       67.372      46.091     -21.970
  N       67.230      44.772     -21.719
  N       67.115      46.555     -23.165
  C       67.276      47.896     -23.264
  C       67.673      48.780     -22.287
  C       67.969      48.251     -20.975
  O       68.349      48.904     -20.007
  N       67.721      50.065     -22.759
  C       67.332      49.961     -24.014
  N       67.047      48.666     -24.368
  O       67.523      53.174     -28.350
  O       68.368      53.746     -26.007
  H       64.228      47.192     -26.588
  H       67.149      54.064     -28.212
  H       67.959      46.470     -20.009
  H       67.247      50.787     -24.706
  H       66.633      47.085     -25.619
  H       64.598      49.017     -25.471
  H       67.389      44.353     -20.817
  H       66.057      50.793     -26.295
  H       66.932      44.177     -22.482
  H       66.868      48.807     -28.504
  H       69.019      49.989     -28.439
  H       67.686      51.104     -28.842
  P       64.027      51.692     -27.720
  C       61.871      50.685     -26.689
  O       63.083      51.390     -26.456
  O       63.010      51.694     -28.955
  O       64.805      52.960     -27.652
  H       63.219      52.436     -29.556
  H       61.349      50.557     -25.764
  H       62.091      49.726     -27.110
  H       61.260      51.241     -27.369

 6  7  8  9  10  11  12  13  14  15  26  29  33  34 0
 6-311+G(2d,p)
 ****
 36  38  39  40  41 0
 6-311+G(2d,p)
 ****
 1  2  3  4  5  16  17  18  19  20  21  22  23  24  25 0
 3-21G
 ****
 27  28  30  31  32  35  37  42  43  44  45  46  47 0
 3-21G
 ****
 48  49 0
 3-21G
 ****


