%nproc=1
%NoSave
%Mem=1900MB
#P OB98/GEN NMR

erre ene a

0 1
  C      465.451    1235.033     501.123
  O      466.236    1235.533     502.183
  H      465.048    1235.875     500.558
  H      464.618    1234.447     501.526
  H      466.048    1234.411     500.448
  P      467.294    1234.564     502.885
  C      466.393    1235.121     505.241
  O      467.532    1235.075     504.388
  C      466.673    1235.894     506.527
  O      467.606    1235.161     507.342
  C      467.308    1237.266     506.257
  O      466.380    1238.310     506.027
  C      468.086    1237.511     507.543
  O      467.270    1238.144     508.540
  C      468.476    1236.094     507.999
  N      473.397    1236.787     509.231
  C      472.273    1237.468     509.687
  N      472.521    1238.482     510.546
  N      471.060    1237.184     509.315
  C      470.985    1236.219     508.374
  C      472.025    1235.478     507.836
  C      473.357    1235.747     508.313
  O      474.379    1235.157     507.950
  N      471.571    1234.612     506.881
  C      470.282    1234.878     506.772
  N      469.867    1235.783     507.727
  O      468.680    1234.947     502.169
  O      467.020    1233.092     502.743
  H      467.833    1238.366     509.299
  H      469.259    1234.156     502.123
  H      474.306    1237.023     509.575
  H      469.599    1234.413     506.071
  H      468.322    1235.965     509.078
  H      468.936    1238.169     507.369
  H      473.449    1238.803     510.799
  H      468.023    1237.206     505.430
  H      471.752    1239.135     510.760
  H      465.742    1235.982     507.106
  H      466.139    1234.087     505.474
  H      465.538    1235.560     504.713
  P      465.982    1238.749     504.541
  C      466.230    1241.355     504.208
  O      465.433    1240.243     504.585
  O      464.680    1237.874     504.241
  O      467.041    1238.545     503.511
  H      464.893    1237.097     503.719
  H      465.661    1242.255     504.316
  H      466.535    1241.246     503.188
  H      467.095    1241.403     504.836

 6  7  8  9  10  11  12  13  14  15  26  29  33  34 0
 6-311+G(2d,p)
 ****
 36  38  39  40  41 0
 6-311+G(2d,p)
 ****
 1  2  3  4  5  16  17  18  19  20  21  22  23  24  25 0
 3-21G
 ****
 27  28  30  31  32  35  37  42  43  44  45  46  47 0
 3-21G
 ****
 48  49 0
 3-21G
 ****


