%nproc=1
%NoSave
%Mem=1900MB
#P OB98/GEN NMR

erre ene a

0 1
  C     -187.749     428.939     309.751
  O     -187.960     428.993     308.353
  H     -188.715     428.812     310.245
  H     -187.297     429.874     310.096
  H     -187.104     428.094     310.009
  P     -186.646     428.999     307.427
  C     -185.918     426.479     307.566
  O     -186.535     427.516     306.825
  C     -184.657     425.986     306.857
  O     -184.090     424.894     307.624
  C     -184.910     425.475     305.436
  O     -183.782     425.813     304.625
  C     -184.971     423.966     305.611
  O     -184.680     423.273     304.401
  C     -183.955     423.757     306.745
  N     -184.166     422.498     307.458
  C     -183.839     421.326     306.772
  O     -183.409     421.381     305.620
  N     -184.044     420.117     307.385
  C     -184.593     420.077     308.561
  N     -184.794     418.848     309.105
  C     -184.995     421.287     309.305
  C     -184.747     422.451     308.706
  O     -185.476     429.057     308.517
  O     -186.607     430.100     306.420
  H     -185.481     423.283     303.835
  H     -185.614     428.450     309.264
  H     -185.461     421.204     310.276
  H     -185.003     423.388     309.181
  H     -182.930     423.761     306.350
  H     -185.971     423.665     305.939
  H     -185.821     425.888     304.994
  H     -183.918     426.794     306.857
  H     -184.525     418.045     308.551
  H     -186.612     425.642     307.699
  H     -185.262     418.695     309.988
  H     -185.668     426.873     308.556
  P     -183.675     427.276     303.993
  C     -183.536     428.934     305.971
  O     -182.823     428.217     304.970
  O     -184.953     427.864     303.497
  O     -182.657     427.056     302.765
  H     -182.988     427.574     302.005
  H     -182.850     429.518     306.548
  H     -184.043     428.243     306.612
  H     -184.251     429.580     305.506

 6  7  8  9  10  11  12  13  14  15  16  26  30  31  32  33  35 0
 6-311+G(2d,p)
 ****
 37  38 0
 6-311+G(2d,p)
 ****
 1  2  3  4  5  17  18  19  20  21  22  23  24  25 0
 3-21G
 ****
 27  28  29  34  36  39  40  41  42  43  44  45  46 0
 3-21G
 ****


