%nproc=1
%NoSave
%Mem=1900MB
#P OB98/GEN NMR

erre ene a

0 1
  C     -127.662      26.640      45.278
  O     -127.578      27.520      46.388
  P     -126.845      27.076      47.744
  C     -126.896      28.038      50.129
  O     -127.027      28.320      48.739
  C     -126.638      29.329      50.905
  O     -125.358      29.862      50.484
  C     -127.642      30.455      50.677
  O     -128.810      30.376      51.479
  C     -126.814      31.663      51.112
  O     -126.794      31.742      52.551
  C     -125.423      31.310      50.579
  N     -124.762      35.687      48.011
  C     -124.971      35.429      49.322
  N     -125.158      34.237      49.924
  C     -125.068      33.239      49.034
  C     -124.851      33.338      47.666
  C     -124.692      34.641      47.153
  N     -124.452      34.898      45.818
  N     -124.837      32.089      47.081
  C     -125.029      31.249      48.073
  N     -125.164      31.891      49.276
  O     -125.448      26.592      47.562
  O     -127.811      25.968      48.373
  H     -126.134      32.424      52.788
  H     -127.330      25.452      49.049
  H     -125.004      36.297      49.973
  H     -125.082      30.178      47.976
  H     -124.622      31.627      51.256
  H     -127.221      32.611      50.747
  H     -127.895      30.557      49.614
  H     -126.563      29.081      51.970
  H     -126.044      27.359      50.264
  H     -124.225      35.844      45.567
  H     -124.239      34.115      45.215
  H     -127.797      27.534      50.488
  P     -130.056      31.303      51.051
  C     -132.636      30.843      50.953
  O     -131.370      30.478      51.463
  O     -130.018      31.784      49.646
  O     -130.013      32.479      52.136
  H     -130.213      32.208      53.052
  H     -133.356      30.066      51.218
  H     -132.606      30.930      49.862
  H     -132.957      31.788      51.393
  H     -128.185      27.122      44.479
  H     -128.188      25.753      45.565
  H     -126.676      26.381      44.953

 3  4  5  6  7  8  9  10  11  12  22  25  29  30  31  32 0
 6-311+G(2d,p)
 ****
 33  36  37 0
 6-311+G(2d,p)
 ****
 1  2  13  14  15  16  17  18  19  20  21  23  24  26 0
 3-21G
 ****
 27  28  34  35  38  39  40  41  42  43  44  45  46  47  48 0
 3-21G
 ****


