%nproc=1
%NoSave
%Mem=1900MB
#P OB98/GEN NMR

erre ene a

0 1
  C       -7.693    -136.082    -258.210
  O       -7.935    -135.459    -256.964
  H       -7.714    -137.166    -258.069
  H       -6.706    -135.794    -258.584
  H       -8.464    -135.803    -258.934
  P       -8.123    -133.863    -256.980
  C      -10.747    -133.789    -257.040
  O       -9.552    -133.589    -256.306
  C      -11.901    -134.149    -256.101
  O      -11.746    -135.528    -255.680
  C      -11.963    -133.281    -254.842
  O      -13.335    -133.079    -254.500
  C      -11.305    -134.151    -253.784
  O      -11.706    -133.790    -252.466
  C      -11.741    -135.554    -254.238
  N      -10.864    -136.604    -253.724
  C      -11.397    -137.440    -252.737
  O      -12.550    -137.267    -252.334
  N      -10.607    -138.422    -252.202
  C       -9.368    -138.524    -252.568
  N       -8.629    -139.501    -251.981
  C       -8.749    -137.636    -253.573
  C       -9.548    -136.715    -254.109
  O       -8.376    -133.579    -258.534
  O       -6.984    -133.101    -256.390
  H      -11.216    -132.982    -252.202
  H       -8.993    -134.206    -258.948
  H       -7.708    -137.752    -253.838
  H       -9.180    -136.027    -254.860
  H      -12.765    -135.766    -253.904
  H      -10.214    -134.055    -253.843
  H      -11.467    -132.317    -254.967
  H      -12.839    -134.091    -256.666
  H       -9.085    -140.075    -251.282
  H      -10.615    -134.590    -257.773
  H       -7.642    -139.637    -252.150
  H      -10.970    -132.864    -257.581
  P      -13.828    -131.628    -254.041
  C      -16.059    -131.385    -255.331
  O      -15.430    -131.577    -254.068
  O      -13.146    -130.474    -254.693
  O      -13.515    -131.633    -252.462
  H      -13.160    -130.754    -252.228
  H      -17.121    -131.371    -255.202
  H      -15.790    -132.185    -255.989
  H      -15.739    -130.455    -255.751

 6  7  8  9  10  11  12  13  14  15  16  26  30  31  32  33  35 0
 6-311+G(2d,p)
 ****
 37  38 0
 6-311+G(2d,p)
 ****
 1  2  3  4  5  17  18  19  20  21  22  23  24  25 0
 3-21G
 ****
 27  28  29  34  36  39  40  41  42  43  44  45  46 0
 3-21G
 ****


