%nproc=1
%NoSave
%Mem=1900MB
#P OB98/GEN NMR

erre ene a

0 1
  C      347.863    -306.922    -473.421
  O      347.830    -305.842    -472.504
  H      346.841    -307.284    -473.566
  H      348.464    -307.739    -473.016
  H      348.263    -306.599    -474.384
  P      349.193    -305.061    -472.185
  C      348.559    -303.074    -473.691
  O      349.490    -304.118    -473.452
  C      349.000    -301.793    -472.984
  O      350.332    -301.444    -473.439
  C      348.080    -300.594    -473.260
  O      347.973    -299.821    -472.062
  C      348.834    -299.806    -474.314
  O      348.504    -298.419    -474.289
  C      350.289    -300.092    -473.937
  N      353.531    -296.950    -476.201
  C      352.857    -296.823    -474.999
  N      353.056    -295.682    -474.308
  N      352.058    -297.738    -474.523
  C      351.964    -298.834    -475.313
  C      352.576    -299.078    -476.519
  C      353.447    -298.050    -477.045
  O      354.059    -298.099    -478.106
  N      352.204    -300.300    -477.027
  C      351.371    -300.791    -476.129
  N      351.182    -299.936    -475.077
  O      350.344    -305.919    -471.769
  O      348.781    -304.020    -471.041
  H      349.204    -297.946    -474.787
  H      349.050    -304.348    -470.164
  H      354.126    -296.209    -476.525
  H      350.872    -301.750    -476.198
  H      350.656    -299.420    -473.151
  H      348.603    -300.198    -475.308
  H      353.672    -294.941    -474.608
  H      347.086    -300.890    -473.603
  H      352.592    -295.576    -473.412
  H      349.069    -301.993    -471.911
  H      347.582    -303.391    -473.308
  H      348.478    -302.902    -474.771
  P      346.565    -299.767    -471.305
  C      347.111    -301.301    -469.312
  O      346.365    -301.145    -470.513
  O      345.402    -299.332    -472.132
  O      346.843    -298.722    -470.118
  H      346.012    -298.259    -469.901
  H      346.893    -302.255    -468.878
  H      346.844    -300.527    -468.623
  H      348.157    -301.239    -469.531

 6  7  8  9  10  11  12  13  14  15  26  29  33  34 0
 6-311+G(2d,p)
 ****
 36  38  39  40  41 0
 6-311+G(2d,p)
 ****
 1  2  3  4  5  16  17  18  19  20  21  22  23  24  25 0
 3-21G
 ****
 27  28  30  31  32  35  37  42  43  44  45  46  47 0
 3-21G
 ****
 48  49 0
 3-21G
 ****


