%nproc=1
%NoSave
%Mem=1900MB
#P OB98/GEN NMR

erre ene a

0 1
  C     -225.390      84.897       6.441
  O     -225.103      83.896       7.434
  P     -225.358      82.350       7.080
  C     -227.950      82.125       7.289
  O     -226.814      82.154       6.438
  C     -229.223      81.767       6.508
  O     -229.613      82.874       5.646
  C     -229.088      80.525       5.613
  O     -230.369      79.882       5.587
  C     -228.784      81.133       4.254
  O     -229.047      80.252       3.172
  C     -229.694      82.364       4.298
  N     -229.347      83.403       3.327
  C     -229.972      83.371       2.085
  O     -230.754      82.495       1.724
  N     -229.645      84.391       1.226
  C     -228.746      85.390       1.465
  O     -228.473      86.255       0.643
  C     -228.091      85.355       2.782
  C     -228.419      84.382       3.636
  O     -225.540      81.702       8.538
  O     -224.246      81.669       6.353
  H     -228.878      80.746       2.349
  H     -225.021      80.879       8.600
  H     -230.100      84.392       0.329
  H     -227.376      86.132       3.013
  H     -227.958      84.344       4.619
  H     -230.733      82.055       4.139
  H     -227.724      81.408       4.212
  H     -228.320      79.826       5.957
  H     -230.036      81.628       7.229
  H     -228.081      83.112       7.746
  H     -227.777      81.398       8.088
  P     -230.708      78.801       6.728
  C     -230.160      76.635       5.369
  O     -229.821      77.503       6.427
  O     -232.180      78.355       6.271
  O     -230.659      79.339       8.121
  H     -232.242      78.191       5.319
  H     -230.477      77.190       4.483
  H     -230.962      75.965       5.687
  H     -229.283      76.036       5.112
  H     -225.166      85.866       6.836
  H     -226.426      84.850       6.176
  H     -224.792      84.719       5.572

 3  4  5  6  7  8  9  10  11  12  13  23  28  29  30  31  32 0
 6-311+G(2d,p)
 ****
 33  34 0
 6-311+G(2d,p)
 ****
 1  2  14  15  16  17  18  19  20  21  22  24  25  26 0
 3-21G
 ****
 27  35  36  37  38  39  40  41  42  43  44  45 0
 3-21G
 ****


