%nproc=1
%NoSave
%Mem=1900MB
#P OB98/GEN NMR

erre ene a

0 1
  C      136.825      96.739      19.068
  O      136.787      95.406      19.536
  H      137.850      96.972      18.764
  H      136.527      97.437      19.854
  H      136.170      96.852      18.201
  P      135.431      94.857      20.195
  C      136.030      94.656      22.693
  O      135.387      95.434      21.693
  C      135.456      94.968      24.076
  O      135.539      96.403      24.298
  C      133.991      94.546      24.244
  O      133.810      94.064      25.578
  C      133.246      95.850      24.041
  O      131.971      95.820      24.653
  C      134.220      96.881      24.619
  N      133.970      98.212      24.070
  C      132.913      98.933      24.639
  O      132.258      98.448      25.563
  N      132.580     100.153      24.109
  C      133.207     100.597      23.065
  N      132.802     101.795      22.566
  C      134.310      99.856      22.414
  C      134.639      98.687      22.964
  O      135.194      93.387      20.086
  O      134.286      95.693      19.451
  H      131.446      96.594      24.352
  H      133.983      95.213      18.657
  H      134.798     100.266      21.542
  H      135.428      98.069      22.547
  H      134.133      96.928      25.712
  H      133.098      96.026      22.968
  H      133.681      93.780      23.525
  H      136.090      94.491      24.833
  H      132.026     102.251      23.031
  H      137.100      94.900      22.674
  H      133.187     102.218      21.734
  H      135.909      93.590      22.469
  P      133.991      92.506      25.915
  C      131.475      92.042      26.043
  O      132.697      91.700      25.397
  O      134.374      92.213      27.332
  O      135.149      92.030      24.913
  H      135.650      91.299      25.325
  H      130.679      91.457      25.633
  H      131.270      93.081      25.890
  H      131.559      91.845      27.091

 6  7  8  9  10  11  12  13  14  15  16  26  30  31  32  33  35 0
 6-311+G(2d,p)
 ****
 37  38 0
 6-311+G(2d,p)
 ****
 1  2  3  4  5  17  18  19  20  21  22  23  24  25 0
 3-21G
 ****
 27  28  29  34  36  39  40  41  42  43  44  45  46 0
 3-21G
 ****


