%nproc=1
%NoSave
%Mem=1900MB
#P OB98/GEN NMR

erre ene a

0 1
  C      222.066       9.495     381.521
  O      220.685       9.204     381.436
  H      222.609       8.557     381.663
  H      222.269      10.147     382.377
  H      222.419       9.966     380.599
  P      219.660      10.422     381.231
  C      219.460      12.686     382.475
  O      219.848      11.321     382.552
  C      218.538      13.038     383.641
  O      219.163      12.754     384.912
  C      218.148      14.510     383.727
  O      217.210      14.910     382.746
  C      217.570      14.542     385.133
  O      216.260      13.948     385.127
  C      218.585      13.662     385.891
  N      219.635      14.443     386.543
  C      219.219      15.370     387.507
  O      218.025      15.509     387.772
  N      220.165      16.151     388.134
  C      221.415      16.030     387.805
  N      222.308      16.831     388.448
  C      221.895      15.082     386.781
  C      220.963      14.329     386.199
  O      218.249      10.044     380.903
  O      220.348      11.342     380.116
  H      215.655      14.594     384.724
  H      219.747      12.108     379.943
  H      222.945      15.041     386.525
  H      221.239      13.612     385.432
  H      218.080      13.045     386.647
  H      217.466      15.552     385.528
  H      219.040      15.151     383.703
  H      217.653      12.389     383.564
  H      221.950      17.471     389.145
  H      218.965      12.849     381.517
  H      223.292      16.859     388.205
  H      220.348      13.327     382.533
  P      216.988      16.494     382.556
  C      216.272      18.441     384.143
  O      216.530      17.056     383.989
  O      215.660      16.568     381.667
  O      218.139      17.229     381.944
  H      215.885      16.706     380.726
  H      215.980      18.639     385.153
  H      215.484      18.733     383.480
  H      217.157      18.997     383.912

 6  7  8  9  10  11  12  13  14  15  16  26  30  31  32  33  35 0
 6-311+G(2d,p)
 ****
 37  38 0
 6-311+G(2d,p)
 ****
 1  2  3  4  5  17  18  19  20  21  22  23  24  25 0
 3-21G
 ****
 27  28  29  34  36  39  40  41  42  43  44  45  46 0
 3-21G
 ****


