%nproc=1
%NoSave
%Mem=1900MB
#P OB98/GEN NMR

erre ene a

0 1
  C     -234.548    -135.538    -257.561
  O     -234.356    -134.387    -258.359
  H     -234.044    -135.421    -256.598
  H     -235.619    -135.668    -257.386
  H     -234.164    -136.422    -258.079
  P     -232.835    -133.963    -258.642
  C     -232.547    -132.202    -256.758
  O     -232.223    -133.502    -257.229
  C     -232.084    -132.033    -255.317
  O     -232.783    -132.956    -254.456
  C     -230.603    -132.308    -255.087
  O     -229.788    -131.213    -255.483
  C     -230.585    -132.503    -253.576
  O     -230.580    -131.220    -252.924
  C     -231.919    -133.218    -253.320
  N     -230.013    -136.991    -250.399
  C     -229.962    -135.643    -250.279
  N     -230.482    -134.705    -251.097
  C     -231.125    -135.274    -252.130
  C     -231.260    -136.628    -252.383
  C     -230.664    -137.510    -251.465
  N     -230.707    -138.881    -251.607
  N     -231.998    -136.838    -253.529
  C     -232.305    -135.632    -253.961
  N     -231.793    -134.654    -253.152
  O     -232.973    -132.585    -259.450
  O     -232.021    -134.960    -259.398
  H     -231.331    -130.718    -253.291
  H     -232.261    -132.535    -260.114
  H     -229.436    -135.269    -249.404
  H     -232.893    -135.422    -254.849
  H     -232.426    -132.816    -252.436
  H     -229.709    -133.050    -253.225
  H     -230.291    -133.238    -255.576
  H     -232.342    -131.014    -254.998
  H     -233.633    -132.059    -256.806
  H     -230.439    -139.454    -250.826
  H     -231.204    -139.259    -252.407
  H     -232.064    -131.462    -257.406
  P     -228.345    -131.552    -256.106
  C     -227.085    -130.909    -253.931
  O     -227.420    -131.940    -254.854
  O     -227.793    -130.114    -256.541
  O     -228.357    -132.512    -257.246
  H     -227.141    -130.213    -257.260
  H     -226.469    -131.312    -253.155
  H     -227.980    -130.508    -253.504
  H     -226.554    -130.132    -254.441

 6  7  8  9  10  11  12  13  14  15  25  28  32  33  34  35 0
 6-311+G(2d,p)
 ****
 36  39  40 0
 6-311+G(2d,p)
 ****
 1  2  3  4  5  16  17  18  19  20  21  22  23  24 0
 3-21G
 ****
 26  27  29  30  31  37  38  41  42  43  44  45  46  47  48 0
 3-21G
 ****


