%nproc=1
%NoSave
%Mem=1900MB
#P OB98/GEN NMR

erre ene a

0 1
  C     -151.546    -166.316    -436.980
  O     -152.639    -165.981    -437.808
  P     -152.484    -165.561    -439.340
  C     -154.706    -164.313    -438.834
  O     -153.871    -164.902    -439.822
  C     -156.170    -164.177    -439.285
  O     -156.241    -163.326    -440.446
  C     -156.711    -165.546    -439.724
  O     -157.208    -166.457    -438.760
  C     -157.666    -165.243    -440.876
  O     -159.030    -165.205    -440.460
  C     -157.209    -163.866    -441.359
  N     -158.166    -163.755    -446.334
  C     -159.006    -163.446    -445.280
  N     -160.307    -163.268    -445.594
  N     -158.600    -163.341    -444.040
  C     -157.291    -163.641    -443.873
  C     -156.360    -163.946    -444.842
  C     -156.811    -164.016    -446.214
  O     -156.119    -164.369    -447.163
  N     -155.141    -164.265    -444.297
  C     -155.344    -164.188    -442.998
  N     -156.640    -163.855    -442.691
  O     -151.803    -166.542    -440.241
  O     -151.523    -164.272    -439.217
  H     -159.553    -164.820    -441.182
  H     -150.945    -164.261    -440.007
  H     -158.553    -163.896    -447.263
  H     -154.599    -164.400    -442.239
  H     -158.051    -163.163    -441.366
  H     -157.597    -166.022    -441.648
  H     -160.679    -163.482    -446.508
  H     -155.873    -166.083    -440.188
  H     -160.973    -163.207    -444.831
  H     -156.775    -163.691    -438.517
  H     -154.288    -163.330    -438.591
  H     -154.671    -164.913    -437.919
  P     -157.068    -168.051    -438.803
  C     -158.830    -168.225    -436.953
  O     -157.546    -168.636    -437.389
  O     -155.486    -168.304    -438.776
  O     -157.680    -168.707    -439.999
  H     -155.289    -169.190    -439.138
  H     -158.926    -168.424    -435.886
  H     -159.595    -168.798    -437.490
  H     -158.983    -167.156    -437.137
  H     -151.902    -166.561    -436.001
  H     -150.877    -165.483    -436.918
  H     -151.031    -167.158    -437.393

 3  4  5  6  7  8  9  10  11  12  23  26  30  31 0
 6-311+G(2d,p)
 ****
 33  35  36  37  38 0
 6-311+G(2d,p)
 ****
 1  2  13  14  15  16  17  18  19  20  21  22  24  25 0
 3-21G
 ****
 27  28  29  32  34  39  40  41  42  43  44  45  46  47  48  49 0
 3-21G
 ****


