%nproc=1
%NoSave
%Mem=1900MB
#P OB98/GEN NMR

erre ene a

0 1
  C       15.234       6.072      -2.177
  O       14.674       6.097      -3.472
  H       16.289       6.346      -2.247
  H       15.163       5.064      -1.762
  H       14.733       6.782      -1.515
  P       13.082       6.020      -3.629
  C       12.894       4.820      -5.903
  O       12.778       6.051      -5.205
  C       12.975       5.056      -7.414
  O       14.357       5.346      -7.771
  C       12.526       3.854      -8.258
  O       11.966       4.369      -9.472
  C       13.846       3.164      -8.538
  O       13.741       2.263      -9.617
  C       14.761       4.373      -8.752
  N       16.177       4.029      -8.638
  C       16.818       3.641      -9.807
  O       16.244       3.548     -10.893
  N       18.140       3.315      -9.689
  C       18.851       3.280      -8.525
  O       20.027       2.948      -8.472
  C       18.109       3.659      -7.312
  C       16.827       4.014      -7.422
  O       12.303       7.007      -2.825
  O       12.719       4.512      -3.235
  H       14.627       1.919      -9.860
  H       11.826       4.473      -2.843
  H       18.622       3.041     -10.530
  H       18.642       3.633      -6.371
  H       16.254       4.298      -6.546
  H       14.598       4.810      -9.747
  H       14.173       2.589      -7.665
  H       11.806       3.213      -7.745
  H       12.391       5.951      -7.660
  H       12.013       4.215      -5.669
  H       13.790       4.290      -5.562
  P       10.664       3.724     -10.152
  C       11.347       4.303     -12.566
  O       10.377       4.480     -11.538
  O        9.479       3.638      -9.246
  O       11.128       2.263     -10.615
  H       10.361       1.662     -10.623
  H       11.049       4.851     -13.436
  H       11.424       3.264     -12.808
  H       12.296       4.662     -12.226

 6  7  8  9  10  11  12  13  14  15  16  26  31  32  33  34  35 0
 6-311+G(2d,p)
 ****
 36  37 0
 6-311+G(2d,p)
 ****
 1  2  3  4  5  17  18  19  20  21  22  23  24  25 0
 3-21G
 ****
 27  28  29  30  38  39  40  41  42  43  44  45 0
 3-21G
 ****


