%nproc=1
%NoSave
%Mem=1900MB
#P OB98/GEN NMR

erre ene a

0 1
  C        7.916    -361.528     -28.227
  O        7.576    -360.605     -29.242
  H        7.386    -362.465     -28.413
  H        7.608    -361.138     -27.253
  H        8.992    -361.724     -28.226
  P        8.404    -359.231     -29.272
  C        6.961    -358.250     -27.350
  O        7.430    -358.100     -28.682
  C        5.930    -357.173     -27.029
  O        6.521    -355.860     -27.152
  C        4.710    -357.179     -27.946
  O        3.746    -358.139     -27.535
  C        4.198    -355.763     -27.736
  O        3.505    -355.677     -26.474
  C        5.504    -354.961     -27.681
  N        4.658    -351.502     -31.289
  C        3.986    -351.731     -30.105
  N        2.928    -350.931     -29.850
  N        4.313    -352.665     -29.249
  C        5.384    -353.396     -29.641
  C        6.134    -353.264     -30.789
  C        5.766    -352.224     -31.722
  O        6.341    -351.961     -32.774
  N        7.149    -354.183     -30.832
  C        7.002    -354.883     -29.726
  N        5.939    -354.450     -28.970
  O        8.475    -358.876     -30.834
  O        9.765    -359.289     -28.668
  H        4.128    -355.984     -25.791
  H        9.338    -358.459     -31.023
  H        4.358    -350.778     -31.918
  H        7.637    -355.706     -29.424
  H        5.439    -354.103     -27.002
  H        3.495    -355.452     -28.509
  H        2.593    -350.226     -30.488
  H        4.997    -357.312     -28.996
  H        2.439    -351.057     -28.972
  H        5.625    -357.298     -25.982
  H        7.805    -358.162     -26.658
  H        6.514    -359.245     -27.242
  P        3.543    -359.434     -28.468
  C        2.991    -358.120     -30.639
  O        2.514    -358.980     -29.614
  O        2.668    -360.406     -27.545
  O        4.803    -360.078     -28.932
  H        2.784    -361.333     -27.834
  H        2.197    -357.907     -31.324
  H        3.794    -358.598     -31.161
  H        3.342    -357.207     -30.204

 6  7  8  9  10  11  12  13  14  15  26  29  33  34 0
 6-311+G(2d,p)
 ****
 36  38  39  40  41 0
 6-311+G(2d,p)
 ****
 1  2  3  4  5  16  17  18  19  20  21  22  23  24  25 0
 3-21G
 ****
 27  28  30  31  32  35  37  42  43  44  45  46  47 0
 3-21G
 ****
 48  49 0
 3-21G
 ****


