%nproc=1
%NoSave
%Mem=1900MB
#P OB98/GEN NMR

erre ene a

0 1
  C       57.737      74.630    -384.896
  O       59.092      74.232    -384.800
  H       57.388      74.430    -385.910
  H       57.648      75.704    -384.700
  H       57.115      74.068    -384.191
  P       59.818      74.289    -383.368
  C       60.490      76.781    -383.235
  O       59.599      75.769    -382.783
  C       60.281      78.086    -382.461
  O       60.676      77.881    -381.079
  C       61.082      79.271    -383.009
  O       60.303      80.466    -382.900
  C       62.275      79.353    -382.073
  O       62.825      80.669    -382.010
  C       61.672      78.875    -380.751
  N       65.876      79.921    -378.145
  C       65.046      80.761    -378.882
  N       65.400      82.056    -378.946
  N       63.971      80.348    -379.500
  C       63.728      79.019    -379.331
  C       64.464      78.092    -378.638
  C       65.666      78.558    -377.970
  O       66.444      77.863    -377.332
  N       63.904      76.845    -378.714
  C       62.822      77.015    -379.458
  N       62.680      78.317    -379.869
  O       61.238      73.819    -383.366
  O       58.897      73.378    -382.423
  H       63.291      80.824    -382.853
  H       59.318      72.522    -382.251
  H       66.700      80.290    -377.703
  H       62.122      76.236    -379.734
  H       61.171      79.686    -380.197
  H       63.063      78.666    -382.416
  H       66.207      82.449    -378.465
  H       61.385      79.122    -384.050
  H       64.800      82.694    -379.441
  H       59.207      78.310    -382.451
  H       60.305      76.948    -384.306
  H       61.527      76.435    -383.115
  P       59.454      80.966    -384.166
  C       60.933      82.505    -385.605
  O       60.465      81.173    -385.407
  O       58.521      82.103    -383.918
  O       58.647      79.638    -384.605
  H       57.772      79.905    -384.949
  H       61.592      82.530    -386.448
  H       61.458      82.832    -384.732
  H       60.100      83.153    -385.784

 6  7  8  9  10  11  12  13  14  15  26  29  33  34 0
 6-311+G(2d,p)
 ****
 36  38  39  40  41 0
 6-311+G(2d,p)
 ****
 1  2  3  4  5  16  17  18  19  20  21  22  23  24  25 0
 3-21G
 ****
 27  28  30  31  32  35  37  42  43  44  45  46  47 0
 3-21G
 ****
 48  49 0
 3-21G
 ****


