%nproc=1
%NoSave
%Mem=1900MB
#P OB98/GEN NMR

erre ene a

0 1
  C     -109.763    -739.250     963.513
  O     -108.733    -738.310     963.158
  P     -107.195    -738.725     963.382
  C     -106.594    -739.056     960.859
  O     -106.736    -739.654     962.144
  C     -105.287    -739.511     960.196
  O     -105.227    -740.946     960.091
  C     -105.128    -738.998     958.778
  O     -104.624    -737.668     958.761
  C     -104.077    -739.963     958.250
  O     -102.764    -739.563     958.688
  C     -104.481    -741.284     958.877
  N     -105.122    -743.201     954.180
  C     -104.192    -742.357     954.688
  N     -104.103    -741.889     955.956
  C     -105.089    -742.369     956.715
  C     -106.116    -743.233     956.331
  C     -106.102    -743.658     954.985
  N     -107.053    -744.504     954.460
  N     -106.949    -743.494     957.390
  C     -106.437    -742.826     958.396
  N     -105.328    -742.117     958.036
  O     -107.279    -739.747     964.600
  O     -106.305    -737.568     963.683
  H     -102.131    -740.222     958.339
  H     -106.488    -739.667     965.154
  H     -103.410    -742.025     953.997
  H     -106.842    -742.828     959.412
  H     -103.624    -741.889     959.180
  H     -104.048    -739.978     957.142
  H     -106.064    -739.091     958.208
  H     -104.458    -739.167     960.808
  H     -106.609    -737.970     960.967
  H     -106.970    -744.789     953.504
  H     -107.780    -744.878     955.071
  H     -107.474    -739.324     960.257
  P     -105.525    -736.544     958.046
  C     -106.813    -735.707     960.171
  O     -106.868    -736.444     958.958
  O     -106.034    -737.283     956.714
  O     -104.822    -735.254     957.770
  H     -106.171    -736.618     956.007
  H     -107.832    -735.488     960.472
  H     -106.281    -734.754     960.033
  H     -106.332    -736.297     960.945
  H     -110.722    -738.824     963.304
  H     -109.694    -739.478     964.556
  H     -109.639    -740.147     962.943

 3  4  5  6  7  8  9  10  11  12  22  25  29  30  31  32 0
 6-311+G(2d,p)
 ****
 33  36  37 0
 6-311+G(2d,p)
 ****
 1  2  13  14  15  16  17  18  19  20  21  23  24  26 0
 3-21G
 ****
 27  28  34  35  38  39  40  41  42  43  44  45  46  47  48 0
 3-21G
 ****


