%nproc=1
%NoSave
%Mem=1900MB
#P OB98/GEN NMR

erre ene a

0 1
  C      935.556     875.521    -234.524
  O      936.372     876.025    -233.489
  H      936.170     874.927    -235.200
  H      935.111     876.350    -235.084
  H      934.757     874.881    -234.129
  P      935.667     876.624    -232.178
  C      936.673     874.833    -230.601
  O      935.489     875.402    -231.141
  C      936.412     874.225    -229.220
  O      935.948     875.271    -228.310
  C      935.297     873.182    -229.289
  O      935.435     872.169    -228.293
  C      934.038     873.999    -228.993
  O      932.955     873.205    -228.527
  C      934.570     874.995    -227.974
  N      930.103     877.270    -227.093
  C      930.405     875.913    -227.159
  N      929.362     875.062    -226.979
  N      931.602     875.440    -227.385
  C      932.510     876.425    -227.597
  C      932.350     877.786    -227.599
  C      931.025     878.298    -227.303
  O      930.692     879.480    -227.258
  N      933.504     878.453    -227.893
  C      934.384     877.495    -228.094
  N      933.840     876.236    -227.914
  O      934.165     876.908    -232.637
  O      936.313     877.851    -231.605
  H      932.246     873.813    -228.239
  H      933.771     877.608    -232.088
  H      929.163     877.574    -226.897
  H      935.437     877.640    -228.361
  H      934.560     874.562    -226.973
  H      933.719     874.476    -229.925
  H      928.411     875.373    -226.981
  H      935.242     872.699    -230.277
  H      929.501     874.098    -227.307
  H      937.346     873.824    -228.800
  H      937.409     875.631    -230.519
  H      937.074     874.067    -231.282
  P      936.179     870.818    -228.695
  C      938.524     871.255    -227.577
  O      937.761     871.149    -228.760
  O      935.767     870.598    -230.238
  O      935.833     869.652    -227.849
  H      935.118     869.880    -230.316
  H      939.540     871.477    -227.827
  H      938.482     870.330    -227.041
  H      938.128     872.039    -226.966

 6  7  8  9  10  11  12  13  14  15  26  29  33  34 0
 6-311+G(2d,p)
 ****
 36  38  39  40  41 0
 6-311+G(2d,p)
 ****
 1  2  3  4  5  16  17  18  19  20  21  22  23  24  25 0
 3-21G
 ****
 27  28  30  31  32  35  37  42  43  44  45  46  47 0
 3-21G
 ****
 48  49 0
 3-21G
 ****


