%nproc=1
%NoSave
%Mem=1900MB
#P OB98/GEN NMR

erre ene a

0 1
  C      103.238    -255.933     -25.495
  O      102.917    -256.438     -24.209
  P      101.423    -256.878     -23.833
  C       99.404    -255.599     -22.873
  O      100.604    -255.505     -23.626
  C       98.361    -254.583     -23.353
  O       98.112    -254.783     -24.777
  C       97.012    -254.657     -22.633
  O       96.510    -253.314     -22.569
  C       96.171    -255.495     -23.584
  O       94.776    -255.350     -23.366
  C       96.689    -254.989     -24.945
  N       96.389    -255.921     -26.023
  C       95.089    -255.883     -26.539
  O       94.237    -255.150     -26.024
  N       94.759    -256.718     -27.578
  C       95.631    -257.591     -28.001
  N       95.257    -258.388     -29.039
  C       96.973    -257.747     -27.403
  C       97.286    -256.879     -26.437
  O      101.313    -257.853     -22.706
  O      100.827    -257.429     -25.210
  H       94.304    -255.989     -23.946
  H      101.171    -258.339     -25.398
  H       97.648    -258.520     -27.746
  H       98.250    -256.913     -25.938
  H       96.241    -254.008     -25.184
  H       96.423    -256.558     -23.457
  H       97.073    -255.095     -21.632
  H       98.792    -253.576     -23.240
  H       94.336    -258.233     -29.430
  H       99.641    -255.381     -21.827
  H       95.887    -259.038     -29.490
  H       99.005    -256.613     -22.927
  P       95.218    -252.942     -21.695
  C       92.712    -252.838     -22.243
  O       93.941    -253.504     -22.483
  O       95.121    -251.505     -21.286
  O       95.316    -253.911     -20.418
  H       94.716    -253.582     -19.715
  H       91.999    -253.109     -23.028
  H       92.855    -251.748     -22.256
  H       92.321    -253.140     -21.268
  H      104.282    -255.701     -25.537
  H      102.668    -255.047     -25.683
  H      103.007    -256.670     -26.236

 3  4  5  6  7  8  9  10  11  12  13  23  27  28  29  30  32 0
 6-311+G(2d,p)
 ****
 34  35 0
 6-311+G(2d,p)
 ****
 1  2  14  15  16  17  18  19  20  21  22  24  25  26 0
 3-21G
 ****
 31  33  36  37  38  39  40  41  42  43  44  45  46 0
 3-21G
 ****


