%nproc=1
%NoSave
%Mem=1900MB
#P OB98/GEN NMR

erre ene a

0 1
  C     -890.620     354.401    1304.905
  O     -891.840     355.106    1304.678
  P     -893.150     354.443    1304.024
  C     -894.940     354.639    1305.893
  O     -894.020     353.781    1305.213
  C     -894.590     354.751    1307.372
  O     -893.260     355.320    1307.526
  C     -895.480     355.680    1308.187
  O     -896.750     355.118    1308.440
  C     -894.620     355.891    1309.435
  O     -894.810     354.829    1310.384
  C     -893.190     355.846    1308.870
  N     -892.530     357.148    1308.891
  C     -892.160     357.634    1310.146
  O     -892.460     357.031    1311.182
  N     -891.470     358.822    1310.205
  C     -891.260     359.494    1309.118
  N     -890.550     360.661    1309.232
  C     -891.770     359.083    1307.784
  C     -892.380     357.907    1307.752
  O     -892.850     353.494    1302.917
  O     -894.040     355.667    1303.515
  H     -894.610     355.375    1302.778
  H     -895.680     354.977    1310.809
  H     -891.610     359.700    1306.920
  H     -892.770     357.513    1306.813
  H     -892.580     355.137    1309.445
  H     -894.880     356.827    1309.957
  H     -895.600     356.642    1307.658
  H     -894.580     353.736    1307.809
  H     -890.220     360.915    1310.154
  H     -895.950     354.203    1305.792
  H     -890.320     361.258    1308.446
  H     -894.950     355.619    1305.417
  P     -897.970     355.597    1307.492
  C     -899.080     353.626    1306.242
  O     -898.060     354.593    1306.258
  O     -897.420     356.954    1306.839
  O     -899.250     355.813    1308.214
  H     -898.130     357.610    1306.787
  H     -899.300     353.370    1305.195
  H     -900.000     354.001    1306.720
  H     -898.760     352.721    1306.754
  H     -889.904     355.061    1305.348
  H     -890.240     354.036    1303.974
  H     -890.801     353.577    1305.563

 3  4  5  6  7  8  9  10  11  12  13  24  27  28  29  30  32 0
 6-311+G(2d,p)
 ****
 34  35 0
 6-311+G(2d,p)
 ****
 1  2  14  15  16  17  18  19  20  21  22  23  25  26 0
 3-21G
 ****
 31  33  36  37  38  39  40  41  42  43  44  45  46 0
 3-21G
 ****


