%nproc=1
%NoSave
%Mem=1900MB
#P OB98/GEN NMR

erre ene a

0 1
  C     -285.425     169.736     229.447
  O     -285.475     168.971     228.257
  H     -284.423     169.648     229.878
  H     -286.148     169.345     230.168
  H     -285.630     170.792     229.247
  P     -286.731     169.140     227.274
  C     -285.305     169.122     225.118
  O     -286.301     168.456     225.885
  C     -284.768     168.188     224.027
  O     -283.865     167.224     224.650
  C     -285.876     167.389     223.303
  O     -285.491     167.205     221.936
  C     -285.821     166.064     224.040
  O     -286.406     165.020     223.300
  C     -284.320     165.917     224.266
  N     -284.027     164.904     225.280
  C     -283.498     163.696     224.832
  O     -283.287     163.446     223.642
  N     -283.290     162.739     225.784
  C     -283.655     162.833     227.100
  O     -283.515     161.908     227.893
  C     -284.259     164.111     227.509
  C     -284.409     165.074     226.598
  O     -287.278     170.526     227.142
  O     -287.815     168.106     227.836
  H     -285.778     164.695     222.631
  H     -288.712     168.353     227.529
  H     -282.898     161.864     225.475
  H     -284.569     164.211     228.542
  H     -284.865     166.025     226.862
  H     -283.809     165.646     223.333
  H     -286.354     166.141     224.999
  H     -286.856     167.869     223.353
  H     -284.176     168.772     223.314
  H     -284.490     169.412     225.790
  H     -285.731     170.023     224.666
  P     -285.892     168.255     220.789
  C     -283.678     168.108     219.486
  O     -285.095     167.940     219.424
  O     -285.817     169.689     221.223
  O     -287.411     167.880     220.421
  H     -287.941     168.698     220.375
  H     -283.249     167.875     218.534
  H     -283.273     167.453     220.229
  H     -283.450     169.122     219.741

 6  7  8  9  10  11  12  13  14  15  16  26  31  32  33  34  35 0
 6-311+G(2d,p)
 ****
 36  37 0
 6-311+G(2d,p)
 ****
 1  2  3  4  5  17  18  19  20  21  22  23  24  25 0
 3-21G
 ****
 27  28  29  30  38  39  40  41  42  43  44  45 0
 3-21G
 ****


