%nproc=1
%NoSave
%Mem=1900MB
#P OB98/GEN NMR

erre ene a

0 1
  C       33.328       6.232      67.608
  O       32.243       6.931      67.031
  P       32.100       7.070      65.444
  C       33.048       9.450      65.493
  O       31.961       8.628      65.092
  C       32.790      10.918      65.156
  O       33.870      11.731      65.686
  C       32.679      11.207      63.653
  O       31.661      12.200      63.486
  C       34.043      11.777      63.312
  O       34.021      12.564      62.130
  C       34.361      12.542      64.601
  N       35.782      12.820      64.746
  C       36.201      14.124      64.475
  O       35.411      14.944      64.006
  N       37.509      14.457      64.728
  C       38.357      13.525      65.038
  N       39.626      13.907      65.347
  C       37.995      12.094      65.088
  C       36.697      11.820      64.977
  O       31.056       6.201      64.825
  O       33.555       6.702      64.883
  H       33.469       6.001      64.208
  H       34.938      12.661      61.797
  H       38.759      11.344      65.225
  H       36.328      10.802      65.028
  H       33.811      13.491      64.632
  H       34.758      10.960      63.164
  H       32.418      10.319      63.069
  H       31.871      11.228      65.667
  H       39.827      14.899      65.342
  H       33.942       9.115      64.962
  H       40.251      13.317      65.895
  H       33.231       9.327      66.566
  P       30.346      11.810      62.650
  C       31.077      13.161      60.559
  O       30.100      12.956      61.557
  O       29.184      12.113      63.718
  O       30.248      10.394      62.182
  H       28.406      11.566      63.503
  H       30.778      14.017      59.949
  H       31.151      12.282      59.912
  H       32.050      13.374      61.008
  H       33.240       6.254      68.674
  H       34.247       6.696      67.316
  H       33.318       5.217      67.270

 3  4  5  6  7  8  9  10  11  12  13  24  27  28  29  30  32 0
 6-311+G(2d,p)
 ****
 34  35 0
 6-311+G(2d,p)
 ****
 1  2  14  15  16  17  18  19  20  21  22  23  25  26 0
 3-21G
 ****
 31  33  36  37  38  39  40  41  42  43  44  45  46 0
 3-21G
 ****


