%nproc=1
%NoSave
%Mem=1900MB
#P OB98/GEN NMR

erre ene a

0 1
  C      776.075     615.219    -746.934
  O      777.293     614.519    -746.748
  P      778.697     615.163    -747.182
  C      779.804     615.406    -744.868
  O      779.158     616.082    -745.944
  C      781.064     616.143    -744.423
  O      782.127     615.915    -745.388
  C      780.897     617.666    -744.275
  O      781.751     618.058    -743.196
  C      781.437     618.184    -745.600
  O      781.798     619.563    -745.541
  C      782.599     617.208    -745.838
  N      783.014     617.189    -747.232
  C      783.596     618.357    -747.733
  O      783.659     619.363    -747.028
  N      784.035     618.376    -749.029
  C      783.818     617.350    -749.802
  N      784.283     617.427    -751.078
  C      783.097     616.145    -749.351
  C      782.734     616.124    -748.061
  O      778.700     615.849    -748.507
  O      779.715     613.928    -747.096
  H      781.055     620.060    -745.150
  H      779.608     613.341    -747.887
  H      782.889     615.335    -750.031
  H      782.212     615.287    -747.639
  H      783.457     617.471    -745.216
  H      780.678     618.072    -746.382
  H      779.866     617.983    -744.094
  H      781.392     615.715    -743.467
  H      784.779     618.258    -751.339
  H      780.080     614.407    -745.211
  H      784.234     616.656    -751.726
  H      779.102     615.290    -744.032
  P      781.215     619.032    -742.029
  C      781.841     617.513    -740.066
  O      780.784     618.096    -740.809
  O      780.196     620.034    -742.456
  O      782.547     619.745    -741.483
  H      782.299     620.529    -740.963
  H      781.446     617.137    -739.113
  H      782.632     618.236    -739.865
  H      782.251     616.666    -740.630
  H      775.262     614.620    -746.581
  H      775.939     615.428    -747.975
  H      776.104     616.138    -746.386

 3  4  5  6  7  8  9  10  11  12  13  23  27  28  29  30  32 0
 6-311+G(2d,p)
 ****
 34  35 0
 6-311+G(2d,p)
 ****
 1  2  14  15  16  17  18  19  20  21  22  24  25  26 0
 3-21G
 ****
 31  33  36  37  38  39  40  41  42  43  44  45  46 0
 3-21G
 ****


