%nproc=1
%NoSave
%Mem=1900MB
#P OB98/GEN NMR

erre ene a

0 1
  C     -415.253     -96.782     -40.367
  O     -416.480     -96.639     -41.058
  H     -414.418     -96.710     -41.068
  H     -415.167     -95.979     -39.630
  H     -415.221     -97.744     -39.847
  P     -416.780     -97.724     -42.203
  C     -416.192     -97.992     -44.709
  O     -416.036     -97.212     -43.533
  C     -414.877     -98.039     -45.485
  O     -414.651     -96.728     -46.067
  C     -413.651     -98.401     -44.627
  O     -412.894     -99.452     -45.243
  C     -412.811     -97.135     -44.628
  O     -411.414     -97.396     -44.610
  C     -413.253     -96.445     -45.912
  N     -409.680     -92.868     -45.227
  C     -409.586     -94.160     -45.590
  N     -410.579     -95.036     -45.850
  C     -411.783     -94.439     -45.734
  C     -412.034     -93.119     -45.392
  C     -410.916     -92.318     -45.108
  N     -411.011     -91.013     -44.686
  N     -413.396     -92.872     -45.366
  C     -413.953     -94.036     -45.642
  N     -413.019     -95.014     -45.859
  O     -418.333     -97.494     -42.527
  O     -416.507     -99.136     -41.807
  H     -410.957     -96.537     -44.542
  H     -418.822     -98.315     -42.327
  H     -408.574     -94.556     -45.681
  H     -415.017     -94.233     -45.654
  H     -412.730     -96.845     -46.790
  H     -413.066     -96.534     -43.746
  H     -413.925     -98.696     -43.612
  H     -414.985     -98.746     -46.318
  H     -416.966     -97.547     -45.346
  H     -410.166     -90.548     -44.392
  H     -411.932     -90.634     -44.491
  H     -416.506     -99.004     -44.430
  P     -412.445    -100.659     -44.280
  C     -410.203    -101.508     -43.271
  O     -410.901    -100.431     -43.888
  O     -412.416    -101.920     -45.268
  O     -413.367    -100.887     -43.129
  H     -412.996    -102.622     -44.921
  H     -409.195    -101.211     -43.070
  H     -410.202    -102.354     -43.926
  H     -410.688    -101.768     -42.353

 6  7  8  9  10  11  12  13  14  15  25  28  32  33  34  35 0
 6-311+G(2d,p)
 ****
 36  39  40 0
 6-311+G(2d,p)
 ****
 1  2  3  4  5  16  17  18  19  20  21  22  23  24 0
 3-21G
 ****
 26  27  29  30  31  37  38  41  42  43  44  45  46  47  48 0
 3-21G
 ****


