%nproc=1
%NoSave
%Mem=1900MB
#P OB98/GEN NMR

erre ene a

0 1
  C      161.181       2.673      70.240
  O      160.240       1.736      69.751
  H      160.866       3.675      69.936
  H      162.169       2.470      69.817
  H      161.222       2.630      71.331
  P      160.512       0.195      70.113
  C      162.537      -1.382      69.768
  O      162.002      -0.077      69.588
  C      163.977      -1.447      69.263
  O      164.863      -0.772      70.175
  C      164.529      -2.859      69.117
  O      164.094      -3.448      67.904
  C      166.025      -2.580      69.104
  O      166.423      -2.128      67.795
  C      166.158      -1.429      70.119
  N      170.082      -2.314      73.310
  C      170.042      -2.089      71.980
  N      168.961      -1.904      71.190
  C      167.829      -1.971      71.908
  C      167.714      -2.194      73.274
  C      168.913      -2.362      73.989
  N      168.950      -2.581      75.350
  N      166.390      -2.198      73.661
  C      165.720      -1.926      72.557
  N      166.542      -1.818      71.465
  O      159.466      -0.768      69.671
  O      160.722       0.289      71.700
  H      165.676      -1.626      67.419
  H      161.218       1.093      71.933
  H      171.006      -2.050      71.479
  H      164.648      -1.784      72.500
  H      166.891      -0.682      69.790
  H      166.616      -3.470      69.328
  H      164.286      -3.477      69.989
  H      164.021      -0.907      68.309
  H      161.923      -2.122      69.242
  H      169.832      -2.860      75.752
  H      168.075      -2.740      75.829
  H      162.502      -1.604      70.840
  P      164.004      -5.043      67.754
  C      165.672      -7.001      67.672
  O      165.509      -5.596      67.840
  O      163.235      -5.524      66.574
  O      163.357      -5.538      69.128
  H      162.740      -6.279      68.967
  H      166.709      -7.251      67.749
  H      165.305      -7.290      66.709
  H      165.124      -7.517      68.432

 6  7  8  9  10  11  12  13  14  15  25  28  32  33  34  35 0
 6-311+G(2d,p)
 ****
 36  39  40 0
 6-311+G(2d,p)
 ****
 1  2  3  4  5  16  17  18  19  20  21  22  23  24 0
 3-21G
 ****
 26  27  29  30  31  37  38  41  42  43  44  45  46  47 0
 3-21G
 ****
 48 0
 3-21G
 ****


