%nproc=1
%NoSave
%Mem=1900MB
#P OB98/GEN NMR

erre ene a

0 1
  C      493.514     -96.412    -411.444
  O      493.818     -95.936    -410.147
  H      493.851     -95.675    -412.175
  H      492.434     -96.549    -411.554
  H      494.033     -97.357    -411.627
  P      493.365     -96.861    -408.917
  C      490.797     -96.674    -409.177
  O      491.953     -96.259    -408.460
  C      489.537     -96.070    -408.565
  O      489.354     -96.558    -407.223
  C      489.558     -94.546    -408.467
  O      489.169     -93.962    -409.700
  C      488.512     -94.313    -407.388
  O      487.193     -94.376    -407.965
  C      488.730     -95.507    -406.440
  N      489.108     -92.944    -402.003
  C      488.225     -92.851    -403.022
  N      488.213     -93.523    -404.191
  C      489.251     -94.380    -404.264
  C      490.233     -94.579    -403.306
  C      490.135     -93.817    -402.125
  N      491.042     -93.915    -401.093
  N      491.142     -95.531    -403.727
  C      490.674     -95.938    -404.888
  N      489.553     -95.245    -405.272
  O      494.381     -97.047    -407.842
  O      492.937     -98.201    -409.687
  H      487.053     -95.299    -408.238
  H      492.455     -97.986    -410.505
  H      487.417     -92.141    -402.874
  H      491.099     -96.742    -405.482
  H      487.774     -95.903    -406.062
  H      488.607     -93.327    -406.916
  H      490.529     -94.171    -408.114
  H      488.679     -96.406    -409.160
  H      490.722     -97.770    -409.168
  H      491.010     -93.205    -400.380
  H      491.873     -94.472    -401.243
  H      490.912     -96.345    -410.214
  P      490.217     -93.148    -410.599
  C      490.674     -91.314    -408.852
  O      490.085     -91.627    -410.108
  O      490.083     -93.379    -412.063
  O      491.648     -93.587    -410.029
  H      492.347     -93.354    -410.674
  H      490.521     -90.277    -408.635
  H      491.723     -91.520    -408.889
  H      490.220     -91.909    -408.087

 6  7  8  9  10  11  12  13  14  15  25  28  32  33  34  35 0
 6-311+G(2d,p)
 ****
 36  39  40 0
 6-311+G(2d,p)
 ****
 1  2  3  4  5  16  17  18  19  20  21  22  23  24 0
 3-21G
 ****
 26  27  29  30  31  37  38  41  42  43  44  45  46  47 0
 3-21G
 ****
 48 0
 3-21G
 ****


