%nproc=1
%NoSave
%Mem=1900MB
#P OB98/GEN NMR

erre ene a

0 1
  C     -163.366    -434.806    -893.440
  O     -162.565    -435.967    -893.400
  H     -164.407    -435.052    -893.220
  H     -163.006    -434.100    -892.680
  H     -163.295    -434.328    -894.420
  P     -162.926    -437.131    -894.450
  C     -165.269    -437.975    -895.180
  O     -164.431    -437.577    -894.110
  C     -166.072    -439.206    -894.770
  O     -166.989    -438.882    -893.690
  C     -166.950    -439.781    -895.890
  O     -166.216    -440.598    -896.780
  C     -167.942    -440.600    -895.070
  O     -167.314    -441.828    -894.650
  C     -168.173    -439.687    -893.870
  N     -173.278    -439.484    -894.350
  C     -172.419    -440.526    -894.240
  N     -171.080    -440.499    -894.110
  C     -170.626    -439.230    -894.120
  C     -171.385    -438.064    -894.240
  C     -172.769    -438.231    -894.360
  N     -173.636    -437.177    -894.490
  N     -170.560    -436.960    -894.250
  C     -169.342    -437.438    -894.090
  N     -169.324    -438.803    -894.030
  O     -162.056    -438.374    -893.940
  O     -162.674    -436.811    -895.880
  H     -167.931    -442.260    -894.020
  H     -161.944    -439.020    -894.650
  H     -172.879    -441.518    -894.230
  H     -168.442    -436.833    -894.040
  H     -168.334    -440.253    -892.940
  H     -168.838    -440.868    -895.630
  H     -167.498    -438.981    -896.420
  H     -165.367    -439.981    -894.400
  H     -164.661    -438.223    -896.050
  H     -174.591    -437.407    -894.760
  H     -173.262    -436.250    -894.640
  H     -165.948    -437.151    -895.440
  P     -166.871    -440.879    -898.220
  C     -168.908    -442.307    -899.000
  O     -167.914    -442.080    -897.990
  O     -165.678    -441.571    -899.040
  O     -167.412    -439.670    -898.920
  H     -165.775    -441.422    -900.000
  H     -169.526    -443.132    -898.713
  H     -168.427    -442.528    -899.930
  H     -169.511    -441.430    -899.110

 6  7  8  9  10  11  12  13  14  15  25  28  32  33  34  35 0
 6-311+G(2d,p)
 ****
 36  39  40 0
 6-311+G(2d,p)
 ****
 1  2  3  4  5  16  17  18  19  20  21  22  23  24 0
 3-21G
 ****
 26  27  29  30  31  37  38  41  42  43  44  45  46  47 0
 3-21G
 ****
 48 0
 3-21G
 ****


