%nproc=1
%NoSave
%Mem=1900MB
#P OB98/GEN NMR

erre ene a

0 1
  C     -240.734    -338.043    -425.831
  O     -239.466    -338.656    -425.895
  H     -241.105    -338.114    -424.804
  H     -241.434    -338.548    -426.496
  H     -240.659    -336.983    -426.105
  P     -238.719    -338.744    -427.310
  C     -238.415    -340.532    -429.148
  O     -238.937    -340.238    -427.860
  C     -238.774    -341.966    -429.547
  O     -238.163    -342.865    -428.599
  C     -240.293    -342.220    -429.544
  O     -240.769    -342.771    -430.772
  C     -240.509    -343.019    -428.264
  O     -241.644    -343.858    -428.281
  C     -239.173    -343.757    -428.086
  N     -238.888    -344.132    -426.703
  C     -239.488    -345.285    -426.216
  O     -240.228    -346.028    -426.862
  N     -239.195    -345.601    -424.906
  C     -238.404    -344.880    -424.066
  O     -238.183    -345.213    -422.906
  C     -237.821    -343.658    -424.631
  C     -238.084    -343.336    -425.899
  O     -237.300    -338.278    -427.328
  O     -239.632    -337.864    -428.291
  H     -241.541    -344.470    -429.039
  H     -239.198    -337.013    -428.469
  H     -239.611    -346.444    -424.553
  H     -237.195    -343.050    -423.982
  H     -237.674    -342.438    -426.348
  H     -239.159    -344.672    -428.686
  H     -240.639    -342.307    -427.426
  H     -240.843    -341.270    -429.465
  H     -238.335    -342.186    -430.537
  H     -237.325    -340.411    -429.111
  H     -238.825    -339.826    -429.879
  P     -241.943    -342.153    -431.661
  C     -244.446    -342.766    -432.204
  O     -243.271    -343.019    -431.437
  O     -241.585    -341.827    -433.079
  O     -242.282    -340.759    -430.922
  H     -242.569    -340.139    -431.627
  H     -245.218    -343.445    -431.908
  H     -244.230    -342.903    -433.243
  H     -244.771    -341.761    -432.037

 6  7  8  9  10  11  12  13  14  15  16  26  31  32  33  34  35 0
 6-311+G(2d,p)
 ****
 36  37 0
 6-311+G(2d,p)
 ****
 1  2  3  4  5  17  18  19  20  21  22  23  24  25 0
 3-21G
 ****
 27  28  29  30  38  39  40  41  42  43  44  45 0
 3-21G
 ****


