%nproc=1
%NoSave
%Mem=1900MB
#P OB98/GEN NMR

erre ene a

0 1
  C      604.802    -503.184      65.936
  O      605.548    -504.115      66.696
  P      604.974    -505.610      66.819
  C      602.680    -506.579      67.670
  O      603.451    -505.450      67.302
  C      601.404    -506.137      68.398
  O      600.723    -505.119      67.623
  C      600.375    -507.237      68.609
  O      600.737    -508.100      69.675
  C      599.111    -506.428      68.849
  O      599.073    -505.958      70.209
  C      599.315    -505.238      67.884
  N      598.554    -505.372      66.638
  C      597.170    -505.381      66.757
  O      596.584    -505.281      67.830
  N      596.472    -505.519      65.583
  C      597.017    -505.728      64.341
  O      596.338    -505.893      63.335
  C      598.478    -505.736      64.280
  C      599.172    -505.563      65.418
  O      605.762    -506.121      68.114
  O      605.184    -506.422      65.588
  H      606.003    -505.383      68.710
  H      598.870    -506.733      70.766
  H      595.466    -505.507      65.644
  H      598.946    -505.907      63.324
  H      600.261    -505.584      65.396
  H      599.011    -504.306      68.372
  H      598.197    -507.003      68.671
  H      600.269    -507.822      67.680
  H      601.699    -505.692      69.356
  H      603.275    -507.215      68.328
  H      602.426    -507.152      66.768
  P      600.538    -509.686      69.421
  C      598.650    -511.079      68.265
  O      599.055    -509.854      68.839
  O      600.439    -510.237      70.921
  O      601.623    -510.308      68.601
  H      599.900    -509.660      71.488
  H      597.559    -511.125      68.257
  H      599.035    -511.933      68.827
  H      599.012    -511.135      67.230
  H      605.301    -502.237      65.942
  H      603.827    -503.076      66.362
  H      604.714    -503.535      64.929

 3  4  5  6  7  8  9  10  11  12  13  24  28  29  30  31  32 0
 6-311+G(2d,p)
 ****
 33  34 0
 6-311+G(2d,p)
 ****
 1  2  14  15  16  17  18  19  20  21  22  23  25  26  27 0
 3-21G
 ****
 35  36  37  38  39  40  41  42  43  44  45 0
 3-21G
 ****


