%nproc=1
%NoSave
%Mem=1900MB
#P OB98/GEN NMR

erre ene a

0 1
  C       45.062     188.287    -368.749
  O       45.775     189.089    -369.670
  H       43.988     188.341    -368.953
  H       45.387     187.249    -368.858
  H       45.264     188.612    -367.725
  P       45.451     190.660    -369.665
  C       47.459     191.245    -368.122
  O       46.046     191.225    -368.285
  C       47.840     192.285    -367.072
  O       47.582     193.615    -367.575
  C       47.055     192.174    -365.769
  O       47.576     191.174    -364.913
  C       47.281     193.562    -365.192
  O       48.604     193.649    -364.632
  C       47.175     194.444    -366.449
  N       44.399     198.619    -367.465
  C       45.722     198.443    -367.256
  N       46.380     197.298    -366.983
  C       45.533     196.261    -366.942
  C       44.164     196.283    -367.128
  C       43.589     197.535    -367.409
  N       42.236     197.721    -367.609
  N       43.625     195.021    -366.969
  C       44.660     194.243    -366.725
  N       45.836     194.949    -366.689
  O       43.869     190.717    -369.427
  O       45.873     191.412    -370.881
  H       48.710     194.564    -364.306
  H       43.517     191.578    -369.723
  H       46.328     199.346    -367.310
  H       44.613     193.172    -366.571
  H       47.852     195.306    -366.414
  H       46.576     193.814    -364.399
  H       45.988     192.031    -365.952
  H       48.920     192.199    -366.888
  H       47.930     191.504    -369.077
  H       41.908     198.674    -367.619
  H       41.614     196.949    -367.419
  H       47.801     190.249    -367.814
  P       46.689     190.750    -363.643
  C       45.715     188.563    -364.660
  O       45.466     189.900    -364.233
  O       46.009     192.128    -363.201
  O       47.457     190.111    -362.532
  H       45.788     192.118    -362.253
  H       44.807     188.131    -365.026
  H       46.077     187.987    -363.835
  H       46.447     188.568    -365.440

 6  7  8  9  10  11  12  13  14  15  25  28  32  33  34  35 0
 6-311+G(2d,p)
 ****
 36  39  40 0
 6-311+G(2d,p)
 ****
 1  2  3  4  5  16  17  18  19  20  21  22  23  24 0
 3-21G
 ****
 26  27  29  30  31  37  38  41  42  43  44  45  46  47 0
 3-21G
 ****
 48 0
 3-21G
 ****


