%nproc=1
%NoSave
%Mem=1900MB
#P OB98/GEN NMR

erre ene a

0 1
  C       50.944      94.451     376.804
  O       50.866      93.384     377.727
  H       51.591      94.152     375.977
  H       51.376      95.332     377.285
  H       49.956      94.694     376.404
  P       49.817      93.482     378.936
  C       47.696      93.158     377.505
  O       48.450      94.048     378.320
  C       46.249      93.108     377.991
  O       45.443      92.337     377.074
  C       46.075      92.447     379.354
  O       46.479      93.316     380.394
  C       44.585      92.131     379.324
  O       43.810      93.296     379.641
  C       44.388      91.721     377.842
  N       44.372      90.271     377.645
  C       43.187      89.614     377.974
  O       42.210      90.193     378.445
  N       43.178      88.264     377.756
  C       44.236      87.510     377.335
  O       44.189      86.288     377.209
  C       45.468      88.252     377.033
  C       45.479      89.576     377.199
  O       50.296      94.197     380.157
  O       49.463      91.951     379.251
  H       43.871      93.419     380.609
  H       49.968      91.652     380.030
  H       42.335      87.769     378.001
  H       46.329      87.689     376.702
  H       46.382      90.143     376.987
  H       43.440      92.129     377.460
  H       44.304      91.362     380.042
  H       46.632      91.503     379.392
  H       45.858      94.134     378.004
  H       48.140      92.158     377.574
  H       47.745      93.499     376.467
  P       45.782      93.250     381.832
  C       47.156      91.110     382.117
  O       45.905      91.739     382.360
  O       44.403      93.822     381.900
  O       46.783      94.050     382.786
  H       46.404      94.927     383.009
  H       47.135      90.113     382.505
  H       47.934      91.664     382.600
  H       47.341      91.079     381.064

 6  7  8  9  10  11  12  13  14  15  16  26  31  32  33  34  35 0
 6-311+G(2d,p)
 ****
 36  37 0
 6-311+G(2d,p)
 ****
 1  2  3  4  5  17  18  19  20  21  22  23  24  25 0
 3-21G
 ****
 27  28  29  30  38  39  40  41  42  43  44  45 0
 3-21G
 ****


