%nproc=1
%NoSave
%Mem=1900MB
#P OB98/GEN NMR

erre ene a

0 1
  C     -403.157     -73.867    -126.489
  O     -403.063     -73.696    -125.088
  H     -404.068     -73.392    -126.864
  H     -402.291     -73.394    -126.960
  H     -403.161     -74.931    -126.742
  P     -404.264     -74.310    -124.215
  C     -406.652     -73.540    -123.578
  O     -405.384     -73.162    -124.095
  C     -407.448     -72.298    -123.188
  O     -406.823     -71.711    -122.016
  C     -407.515     -71.220    -124.286
  O     -408.869     -70.796    -124.498
  C     -406.728     -70.055    -123.710
  O     -407.247     -68.789    -124.096
  C     -406.841     -70.289    -122.208
  N     -404.127     -65.992    -121.762
  C     -405.348     -66.223    -122.276
  N     -406.058     -67.370    -122.280
  C     -405.387     -68.347    -121.636
  C     -404.139     -68.251    -121.038
  C     -403.485     -67.013    -121.137
  N     -402.216     -66.790    -120.660
  N     -403.770     -69.465    -120.481
  C     -404.760     -70.285    -120.780
  N     -405.752     -69.658    -121.486
  O     -403.642     -74.389    -122.740
  O     -404.747     -75.644    -124.678
  H     -407.320     -68.786    -125.069
  H     -403.630     -75.322    -122.452
  H     -405.828     -65.371    -122.762
  H     -404.788     -71.342    -120.548
  H     -407.787     -69.906    -121.806
  H     -405.687     -70.123    -124.047
  H     -407.086     -71.561    -125.231
  H     -408.461     -72.607    -122.893
  H     -406.516     -74.171    -122.692
  H     -401.777     -65.908    -120.874
  H     -401.693     -67.576    -120.291
  H     -407.192     -74.115    -124.339
  P     -409.319     -70.607    -126.032
  C     -409.914     -68.546    -127.502
  O     -409.159     -69.049    -126.405
  O     -410.903     -70.835    -125.976
  O     -408.662     -71.558    -126.975
  H     -411.153     -71.548    -126.591
  H     -409.707     -67.504    -127.630
  H     -410.958     -68.681    -127.308
  H     -409.645     -69.075    -128.392

 6  7  8  9  10  11  12  13  14  15  25  28  32  33  34  35 0
 6-311+G(2d,p)
 ****
 36  39  40 0
 6-311+G(2d,p)
 ****
 1  2  3  4  5  16  17  18  19  20  21  22  23  24 0
 3-21G
 ****
 26  27  29  30  31  37  38  41  42  43  44  45  46  47  48 0
 3-21G
 ****


