%nproc=1
%NoSave
%Mem=1900MB
#P OB98/GEN NMR

erre ene a

0 1
  C       36.900     -30.396      84.549
  O       38.071     -30.501      83.766
  H       36.344     -31.335      84.478
  H       36.268     -29.583      84.180
  H       37.163     -30.218      85.595
  P       38.974     -29.178      83.647
  C       40.915     -30.288      84.989
  O       39.935     -29.263      84.932
  C       42.311     -29.676      84.988
  O       42.546     -28.941      86.212
  C       43.448     -30.691      84.906
  O       43.653     -31.202      83.601
  C       44.607     -29.821      85.361
  O       44.982     -28.923      84.300
  C       43.958     -29.059      86.536
  N       44.136     -29.734      87.824
  C       45.292     -29.415      88.546
  O       46.107     -28.608      88.103
  N       45.517     -30.048      89.744
  C       44.657     -30.907      90.196
  N       44.936     -31.502      91.386
  C       43.421     -31.263      89.476
  C       43.226     -30.647      88.313
  O       37.963     -28.002      84.043
  O       39.678     -28.979      82.347
  H       45.613     -28.287      84.684
  H       38.457     -27.153      84.144
  H       42.740     -31.994      89.886
  H       42.338     -30.857      87.726
  H       44.362     -28.043      86.616
  H       45.498     -30.391      85.624
  H       43.314     -31.505      85.627
  H       42.361     -28.957      84.162
  H       45.820     -31.282      91.827
  H       40.788     -30.934      84.114
  H       44.409     -32.287      91.745
  H       40.782     -30.886      85.895
  P       44.261     -32.683      83.477
  C       42.103     -33.860      82.620
  O       43.043     -33.704      83.676
  O       45.103     -32.844      84.826
  O       45.100     -32.918      82.260
  H       45.899     -33.391      84.677
  H       41.358     -34.572      82.908
  H       42.607     -34.207      81.742
  H       41.637     -32.919      82.415

 6  7  8  9  10  11  12  13  14  15  16  26  30  31  32  33  35 0
 6-311+G(2d,p)
 ****
 37  38 0
 6-311+G(2d,p)
 ****
 1  2  3  4  5  17  18  19  20  21  22  23  24  25 0
 3-21G
 ****
 27  28  29  34  36  39  40  41  42  43  44  45  46 0
 3-21G
 ****


