%nproc=1
%NoSave
%Mem=1900MB
#P OB98/GEN NMR

erre ene a

0 1
  C       42.620     -29.589      29.961
  O       42.436     -29.297      28.591
  H       42.117     -28.821      30.555
  H       43.686     -29.581      30.207
  H       42.189     -30.563      30.205
  P       43.065     -30.334      27.542
  C       41.038     -31.959      27.446
  O       42.386     -31.754      27.852
  C       40.906     -33.317      26.762
  O       39.510     -33.599      26.517
  C       41.586     -33.400      25.400
  O       42.984     -33.595      25.516
  C       40.857     -34.584      24.778
  O       41.424     -35.832      25.200
  C       39.439     -34.437      25.342
  N       36.718     -35.407      21.144
  C       37.487     -36.196      21.925
  N       38.166     -35.863      23.043
  C       37.983     -34.565      23.335
  C       37.235     -33.638      22.631
  C       36.576     -34.104      21.483
  N       35.822     -33.293      20.669
  N       37.329     -32.392      23.220
  C       38.111     -32.567      24.266
  N       38.524     -33.863      24.377
  O       44.567     -30.509      28.071
  O       43.020     -29.903      26.115
  H       41.324     -35.869      26.171
  H       45.156     -29.899      27.589
  H       37.571     -37.232      21.607
  H       38.410     -31.790      24.960
  H       39.016     -35.398      25.657
  H       40.911     -34.556      23.689
  H       41.366     -32.501      24.811
  H       41.295     -34.088      27.438
  H       40.749     -31.172      26.742
  H       40.390     -31.906      28.327
  H       35.396     -33.691      19.847
  H       35.798     -32.299      20.853
  P       43.907     -33.280      24.246
  C       45.620     -31.940      25.672
  O       44.732     -31.942      24.565
  O       42.855     -32.821      23.132
  O       44.745     -34.425      23.786
  H       42.671     -33.554      22.516
  H       46.090     -30.982      25.750
  H       46.367     -32.694      25.532
  H       45.073     -32.143      26.569

 6  7  8  9  10  11  12  13  14  15  25  28  32  33  34  35 0
 6-311+G(2d,p)
 ****
 36  37  40 0
 6-311+G(2d,p)
 ****
 1  2  3  4  5  16  17  18  19  20  21  22  23  24 0
 3-21G
 ****
 26  27  29  30  31  38  39 41  42  43  44  45  46  47  48 0
 3-21G
 ****


