%nproc=1
%NoSave
%Mem=1900MB
#P OB98/GEN NMR

erre ene a

0 1
  C      178.450      63.907    -649.496
  O      178.318      62.653    -650.131
  H      177.564      64.515    -649.695
  H      178.532      63.750    -648.417
  H      179.348      64.429    -649.846
  P      178.483      62.617    -651.726
  C      180.822      61.491    -651.633
  O      180.063      62.630    -652.017
  C      182.317      61.776    -651.760
  O      182.653      62.894    -650.886
  C      183.222      60.593    -651.376
  O      184.335      60.565    -652.274
  C      183.714      60.968    -649.990
  O      184.957      60.360    -649.664
  C      183.786      62.487    -650.099
  N      185.953      62.384    -645.501
  C      186.340      61.879    -646.692
  N      185.726      61.999    -647.884
  C      184.641      62.788    -647.785
  C      184.128      63.377    -646.643
  C      184.829      63.135    -645.451
  N      184.407      63.588    -644.222
  N      182.965      64.066    -646.940
  C      182.768      63.868    -648.230
  N      183.753      63.099    -648.783
  O      178.010      64.087    -652.154
  O      177.710      61.553    -652.430
  H      185.296      60.752    -648.836
  H      177.044      64.092    -652.287
  H      187.253      61.292    -646.682
  H      181.921      64.228    -648.796
  H      184.698      62.833    -650.605
  H      182.973      60.660    -649.242
  H      182.709      59.624    -651.389
  H      182.522      62.101    -652.787
  H      180.562      60.654    -652.288
  H      184.912      63.276    -643.405
  H      183.515      64.056    -644.152
  H      180.571      61.224    -650.602
  P      184.429      59.330    -653.290
  C      183.828      60.727    -655.406
  O      183.492      59.637    -654.554
  O      183.650      58.161    -652.527
  O      185.830      58.928    -653.627
  H      184.040      57.294    -652.741
  H      183.109      60.797    -656.196
  H      184.801      60.568    -655.822
  H      183.826      61.635    -654.841

 6  7  8  9  10  11  12  13  14  15  25  28  32  33  34  35 0
 6-311+G(2d,p)
 ****
 36  39  40 0
 6-311+G(2d,p)
 ****
 1  2  3  4  5  16  17  18  19  20  21  22  23  24 0
 3-21G
 ****
 26  27  29  30  31  37  38  41  42  43  44  45  46  47 0
 3-21G
 ****
 48 0
 3-21G
 ****


