%nproc=1
%NoSave
%Mem=1900MB
#P OB98/GEN NMR

erre ene a

0 1
  C     -366.856    -132.529    -378.966
  O     -367.891    -133.193    -379.665
  H     -367.299    -131.937    -378.161
  H     -366.327    -131.857    -379.648
  H     -366.154    -133.247    -378.532
  P     -367.451    -134.366    -380.667
  C     -365.506    -134.707    -382.354
  O     -366.191    -133.809    -381.495
  C     -364.318    -134.012    -383.009
  O     -364.771    -133.055    -383.991
  C     -363.429    -133.239    -382.042
  O     -362.485    -134.094    -381.404
  C     -362.738    -132.280    -382.992
  O     -361.697    -132.976    -383.715
  C     -363.878    -131.907    -383.951
  N     -364.001    -126.833    -383.917
  C     -363.012    -127.691    -384.358
  N     -361.895    -127.117    -384.854
  N     -363.107    -128.998    -384.316
  C     -364.272    -129.430    -383.772
  C     -365.323    -128.679    -383.296
  C     -365.211    -127.240    -383.364
  O     -366.064    -126.434    -383.000
  N     -366.334    -129.471    -382.818
  C     -365.887    -130.700    -382.987
  N     -364.639    -130.731    -383.561
  O     -368.639    -134.375    -381.744
  O     -367.276    -135.706    -380.041
  H     -361.469    -132.428    -384.487
  H     -369.234    -135.124    -381.550
  H     -363.874    -125.837    -383.964
  H     -366.429    -131.599    -382.723
  H     -363.522    -131.728    -384.972
  H     -362.261    -131.443    -382.479
  H     -361.749    -126.121    -384.894
  H     -364.018    -132.672    -381.309
  H     -361.158    -127.731    -385.182
  H     -363.737    -134.774    -383.544
  H     -366.199    -135.056    -383.130
  H     -365.159    -135.568    -381.770
  P     -362.287    -133.957    -379.817
  C     -359.976    -133.842    -378.650
  O     -360.865    -133.248    -379.581
  O     -362.030    -135.471    -379.365
  O     -363.437    -133.358    -379.083
  H     -362.785    -135.793    -378.840
  H     -359.076    -133.265    -378.598
  H     -359.743    -134.838    -378.965
  H     -360.437    -133.871    -377.685

 6  7  8  9  10  11  12  13  14  15  26  29  33  34 0
 6-311+G(2d,p)
 ****
 36  38  39  40  41 0
 6-311+G(2d,p)
 ****
 1  2  3  4  5  16  17  18  19  20  21  22  23  24  25 0
 3-21G
 ****
 27  28  30  31  32  35  37  42  43  44  45  46  47 0
 3-21G
 ****
 48  49 0
 3-21G
 ****


