%nproc=1
%NoSave
%Mem=1900MB
#P OB98/GEN NMR

erre ene a

0 1
  C      194.587     377.656    1664.235
  O      193.801     378.839    1664.053
  P      192.481     378.986    1664.953
  C      190.821     378.242    1663.099
  O      191.372     377.976    1664.374
  C      190.549     376.930    1662.354
  O      189.935     375.949    1663.233
  C      189.586     377.089    1661.188
  O      190.220     377.693    1660.081
  C      189.180     375.631    1660.956
  O      190.193     374.932    1660.226
  C      189.108     375.090    1662.406
  N      184.478     372.970    1661.946
  C      185.606     372.795    1661.255
  N      186.808     373.405    1661.434
  C      186.758     374.266    1662.468
  C      185.665     374.550    1663.264
  C      184.463     373.861    1662.967
  N      183.299     374.056    1663.668
  N      185.992     375.490    1664.218
  C      187.256     375.782    1663.989
  N      187.763     375.058    1662.944
  O      191.918     380.438    1664.558
  O      192.752     378.886    1666.430
  H      190.377     375.431    1659.417
  H      192.063     381.072    1665.301
  H      185.567     372.076    1660.441
  H      187.817     376.517    1664.540
  H      189.512     374.081    1662.475
  H      188.238     375.533    1660.391
  H      188.701     377.677    1661.490
  H      191.517     376.543    1662.012
  H      191.507     378.860    1662.515
  H      182.464     373.582    1663.347
  H      183.261     374.766    1664.388
  H      189.889     378.828    1663.220
  P      190.145     379.300    1659.971
  C      187.729     378.773    1659.214
  O      188.574     379.616    1660.019
  O      190.498     379.525    1658.411
  O      190.980     380.040    1660.941
  H      190.008     378.903    1657.843
  H      186.690     379.067    1659.370
  H      187.865     377.716    1659.508
  H      187.985     378.894    1658.154
  H      195.432     377.685    1663.579
  H      193.992     376.795    1664.013
  H      194.925     377.605    1665.249

 3  4  5  6  7  8  9  10  11  12  22  25  29  30  31  32 0
 6-311+G(2d,p)
 ****
 33  36  37 0
 6-311+G(2d,p)
 ****
 1  2  13  14  15  16  17  18  19  20  21  23  24  26 0
 3-21G
 ****
 27  28  34  35  38  39  40  41  42  43  44  45  46  47  48 0
 3-21G
 ****


