%nproc=1
%NoSave
%Mem=1900MB
#P OB98/GEN NMR

erre ene a

0 1
  C      161.508    -629.041    -134.141
  O      161.642    -629.602    -135.452
  P      163.091    -630.158    -135.871
  C      162.743    -632.544    -134.850
  O      163.433    -631.305    -134.805
  C      163.708    -633.668    -135.221
  O      164.847    -633.680    -134.323
  C      163.108    -635.065    -135.122
  O      162.229    -635.324    -136.208
  C      164.367    -635.921    -135.100
  O      164.877    -636.097    -136.431
  C      165.332    -635.043    -134.277
  N      165.497    -635.506    -132.905
  C      166.083    -636.760    -132.752
  O      166.424    -637.459    -133.705
  N      166.241    -637.191    -131.467
  C      165.857    -636.522    -130.341
  O      166.037    -636.957    -129.210
  C      165.199    -635.227    -130.565
  C      165.051    -634.784    -131.816
  O      164.024    -628.931    -135.451
  O      163.168    -630.553    -137.307
  H      163.717    -628.474    -134.652
  H      164.174    -636.553    -136.939
  H      166.677    -638.095    -131.335
  H      164.856    -634.678    -129.698
  H      164.563    -633.831    -132.002
  H      166.323    -635.026    -134.750
  H      164.185    -636.915    -134.684
  H      162.566    -635.174    -134.175
  H      164.074    -633.483    -136.236
  H      161.942    -632.500    -135.594
  H      162.277    -632.726    -133.876
  P      160.740    -635.796    -135.839
  C      159.753    -633.409    -136.263
  O      159.951    -634.483    -135.369
  O      160.997    -636.601    -134.479
  O      160.078    -636.595    -136.913
  H      161.601    -636.142    -133.877
  H      158.931    -632.794    -135.894
  H      159.505    -633.769    -137.266
  H      160.661    -632.801    -136.307
  H      160.500    -628.713    -133.995
  H      162.173    -628.209    -134.040
  H      161.751    -629.783    -133.409

 3  4  5  6  7  8  9  10  11  12  13  24  28  29  30  31  32 0
 6-311+G(2d,p)
 ****
 33  34 0
 6-311+G(2d,p)
 ****
 1  2  14  15  16  17  18  19  20  21  22  23  25  26  27 0
 3-21G
 ****
 35  36  37  38  39  40  41  42  43  44  45 0
 3-21G
 ****


