%nproc=1
%NoSave
%Mem=1900MB
#P OB98/GEN NMR

erre ene a

0 1
  C     -548.585     -73.637      30.038
  O     -547.582     -74.500      30.558
  P     -546.194     -74.600      29.744
  C     -545.765     -76.861      28.552
  O     -546.465     -75.617      28.540
  C     -546.458     -77.856      29.469
  O     -547.879     -77.879      29.190
  C     -546.005     -79.306      29.284
  O     -544.786     -79.562      29.996
  C     -547.158     -80.059      29.915
  O     -547.012     -80.081      31.353
  C     -548.368     -79.197      29.517
  N     -551.980     -82.415      27.990
  C     -551.513     -82.143      29.262
  N     -552.108     -82.822      30.271
  N     -550.539     -81.307      29.512
  C     -550.068     -80.680      28.410
  C     -550.439     -80.860      27.086
  C     -551.476     -81.833      26.821
  O     -551.888     -82.166      25.706
  N     -549.740     -80.047      26.247
  C     -548.960     -79.338      27.050
  N     -549.103     -79.715      28.371
  O     -545.250     -75.431      30.733
  O     -545.588     -73.276      29.366
  H     -547.594     -80.784      31.684
  H     -544.311     -75.210      30.551
  H     -552.732     -83.066      27.845
  H     -548.286     -78.545      26.727
  H     -549.071     -79.075      30.359
  H     -547.212     -81.107      29.584
  H     -552.942     -83.373      30.154
  H     -545.922     -79.566      28.228
  H     -551.808     -82.600      31.216
  H     -546.316     -77.533      30.509
  H     -544.749     -76.687      28.919
  H     -545.697     -77.253      27.530
  P     -543.927     -80.830      29.501
  C     -544.037     -82.722      31.269
  O     -544.646     -82.106      30.155
  O     -542.566     -80.680      30.322
  O     -543.702     -80.886      28.027
  H     -541.826     -81.119      29.843
  H     -543.566     -81.996      31.932
  H     -543.301     -83.450      30.933
  H     -544.813     -83.255      31.841
  H     -549.446     -73.668      30.673
  H     -548.856     -73.957      29.054
  H     -548.208     -72.636      29.996

 3  4  5  6  7  8  9  10  11  12  23  26  30  31  33  0
 6-311+G(2d,p)
 ****
 35  36  37  38 0
 6-311+G(2d,p)
 ****
 1  2  13  14  15  16  17  18  19  20  21  22  24  25  27  28  29 0
 3-21G
 ****
 32  34  39  40  41  42  43  44  45  46  47  48  49 0
 3-21G
 ****


