%nproc=1
%NoSave
%Mem=1900MB
#P OB98/GEN NMR

erre ene a

0 1
  C       95.422     198.697    -223.927
  O       94.780     197.914    -222.941
  H       95.752     199.634    -223.470
  H       94.740     198.929    -224.749
  H       96.300     198.169    -224.312
  P       93.982     196.605    -223.419
  C       93.257     195.653    -221.130
  O       92.853     196.358    -222.301
  C       92.043     195.223    -220.304
  O       91.399     196.379    -219.727
  C       90.961     194.531    -221.117
  O       91.324     193.250    -221.588
  C       89.733     194.687    -220.231
  O       89.610     193.663    -219.250
  C       90.009     196.044    -219.541
  N       89.126     197.097    -220.031
  C       87.785     196.973    -219.686
  O       87.337     196.035    -219.026
  N       86.954     197.949    -220.159
  C       87.320     198.984    -220.971
  O       86.517     199.808    -221.398
  C       88.745     199.049    -221.326
  C       89.574     198.116    -220.847
  O       94.823     195.397    -223.704
  O       93.138     197.112    -224.679
  H       89.504     192.818    -219.729
  H       92.815     196.352    -225.220
  H       85.981     197.883    -219.910
  H       89.071     199.854    -221.970
  H       90.631     198.139    -221.096
  H       89.854     195.955    -218.458
  H       88.813     194.678    -220.820
  H       90.771     195.136    -222.012
  H       92.391     194.584    -219.484
  H       93.877     196.329    -220.531
  H       93.855     194.781    -221.412
  P       90.382     192.357    -222.520
  C       92.121     191.376    -224.180
  O       91.249     191.127    -223.083
  O       89.480     193.089    -223.462
  O       89.443     191.633    -221.421
  H       88.559     191.525    -221.818
  H       92.629     190.472    -224.444
  H       92.838     192.120    -223.904
  H       91.551     191.723    -225.017

 6  7  8  9  10  11  12  13  14  15  16  26  31  32  33  34  35 0
 6-311+G(2d,p)
 ****
 36  37 0
 6-311+G(2d,p)
 ****
 1  2  3  4  5  17  18  19  20  21  22  23  24  25 0
 3-21G
 ****
 27  28  29  30  38  39  40  41  42  43  44  45 0
 3-21G
 ****


