%nproc=1
%NoSave
%Mem=1900MB
#P OB98/GEN NMR

erre ene a

0 1
  C      533.840     348.178     531.231
  O      535.066     348.469     530.576
  P      535.010     348.754     528.994
  C      535.056     347.218     526.889
  O      534.777     347.324     528.289
  C      534.765     345.803     526.378
  O      535.706     344.879     526.987
  C      533.350     345.306     526.663
  O      532.920     344.527     525.548
  C      533.532     344.386     527.853
  O      532.493     343.419     527.947
  C      534.943     343.816     527.583
  N      535.574     343.303     528.798
  C      536.380     342.172     528.670
  O      536.455     341.593     527.581
  N      537.024     341.680     529.780
  C      536.797     342.219     530.940
  N      537.465     341.713     532.003
  C      535.867     343.352     531.138
  C      535.314     343.851     530.033
  O      536.528     349.102     528.634
  O      534.067     349.835     528.588
  H      532.764     342.742     528.603
  H      536.574     349.743     527.909
  H      535.684     343.736     532.133
  H      534.633     344.688     530.077
  H      534.876     342.985     526.851
  H      533.539     344.975     528.792
  H      532.644     346.119     526.837
  H      534.968     345.783     525.292
  H      538.087     340.928     531.852
  H      536.109     347.433     526.729
  H      537.348     342.060     532.951
  H      534.457     347.950     526.348
  P      531.343     344.325     525.338
  C      529.749     342.400     525.960
  O      530.948     343.084     526.269
  O      531.298     343.654     523.872
  O      530.464     345.535     525.400
  H      530.372     343.532     523.600
  H      529.683     341.503     526.578
  H      529.743     342.100     524.897
  H      528.901     343.046     526.166
  H      534.023     348.011     532.272
  H      533.405     347.301     530.800
  H      533.169     349.003     531.115

 3  4  5  6  7  8  9  10  11  12  13  21  23  27  28  29  30  32 0
 6-311+G(2d,p)
 ****
 34  35 0
 6-311+G(2d,p)
 ****
 1  2  14  15  16  17  18  19  20  22  24  25  26 0
 3-21G
 ****
 31  33  36  37  38  39  40  41  42  43  44  45  46 0
 3-21G
 ****


