%nproc=1
%NoSave
%Mem=1900MB
#P OB98/GEN NMR

erre ene a

0 1
  C      128.557    -411.438    -154.444
  O      128.737    -411.637    -155.857
  P      130.219    -411.891    -156.436
  C      131.057    -412.575    -158.824
  O      130.167    -411.790    -158.038
  C      130.854    -412.280    -160.313
  O      129.574    -412.800    -160.755
  C      130.820    -410.798    -160.667
  O      132.118    -410.230    -160.680
  C      130.154    -410.833    -162.032
  O      131.109    -411.130    -163.065
  C      129.146    -411.990    -161.867
  N      127.771    -411.528    -161.701
  C      126.869    -411.892    -162.691
  O      127.185    -412.517    -163.701
  N      125.571    -411.480    -162.502
  C      125.118    -410.693    -161.469
  O      123.956    -410.345    -161.365
  C      126.146    -410.274    -160.494
  C      127.402    -410.701    -160.656
  O      130.400    -413.467    -156.204
  O      131.312    -411.129    -155.764
  H      131.752    -410.389    -163.065
  H      131.342    -413.672    -156.097
  H      124.898    -411.755    -163.185
  H      125.836    -409.633    -159.681
  H      128.165    -410.396    -159.943
  H      129.182    -412.651    -162.752
  H      129.684    -409.872    -162.301
  H      130.177    -410.265    -159.966
  H      131.646    -412.799    -160.869
  H      130.865    -413.637    -158.631
  H      132.086    -412.339    -158.530
  P      132.278    -408.783    -160.004
  C      134.470    -407.593    -159.213
  O      133.830    -408.409    -160.173
  O      132.107    -409.147    -158.455
  O      131.301    -407.779    -160.523
  H      132.463    -410.036    -158.244
  H      134.064    -407.749    -158.218
  H      134.343    -406.534    -159.501
  H      135.547    -407.830    -159.212
  H      127.519    -411.285    -154.235
  H      129.114    -410.580    -154.131
  H      128.904    -412.301    -153.915

 3  4  5  6  7  8  9  10  11  12  13  23  28  29  30  31  32 0
 6-311+G(2d,p)
 ****
 33  34 0
 6-311+G(2d,p)
 ****
 1  2  14  15  16  17  18  19  20  21  22  24  25  26 0
 3-21G
 ****
 27  35  36  37  38  39  40  41  42  43  44  45 0
 3-21G
 ****


