%nproc=1
%NoSave
%Mem=1900MB
#P OB98/GEN NMR

erre ene a

0 1
  C       -7.636    -409.315     397.306
  O       -8.093    -409.073     398.644
  P       -9.020    -410.176     399.366
  C      -11.202    -409.132     398.355
  O      -10.506    -409.575     399.509
  C      -12.573    -408.566     398.746
  O      -13.371    -409.576     399.408
  C      -12.514    -407.407     399.731
  O      -12.137    -406.189     399.098
  C      -13.940    -407.387     400.265
  O      -14.817    -406.681     399.371
  C      -14.286    -408.893     400.287
  N      -14.249    -409.454     401.634
  C      -15.484    -409.746     402.215
  O      -16.559    -409.491     401.681
  N      -15.430    -410.312     403.468
  C      -14.303    -410.542     404.199
  O      -14.327    -411.031     405.323
  C      -13.032    -410.139     403.562
  C      -13.073    -409.627     402.334
  O       -8.491    -410.108     400.882
  O       -8.921    -411.560     398.826
  H      -14.779    -407.139     398.514
  H       -8.631    -410.979     401.308
  H      -16.314    -410.551     403.893
  H      -12.122    -410.290     404.121
  H      -12.144    -409.323     401.850
  H      -15.289    -409.055     399.867
  H      -14.017    -406.902     401.243
  H      -11.822    -407.646     400.552
  H      -13.093    -408.263     397.825
  H      -11.348    -409.979     397.674
  H      -10.600    -408.369     397.849
  P      -10.586    -405.781     399.199
  C      -10.558    -404.284     401.344
  O      -10.573    -404.360     399.928
  O      -10.255    -405.460     397.662
  O       -9.733    -406.844     399.804
  H      -11.022    -405.083     397.191
  H      -10.000    -405.110     401.782
  H      -11.584    -404.293     401.714
  H      -10.085    -403.341     401.637
  H       -7.037    -408.491     396.979
  H       -8.479    -409.424     396.656
  H       -7.051    -410.211     397.285

 3  4  5  6  7  8  9  10  11  12  13  23  28  29  30  31  32 0
 6-311+G(2d,p)
 ****
 33  34 0
 6-311+G(2d,p)
 ****
 1  2  14  15  16  17  18  19  20  21  22  24  25  26 0
 3-21G
 ****
 27  35  36  37  38  39  40  41  42  43  44  45 0
 3-21G
 ****


