%nproc=1
%NoSave
%Mem=1900MB
#P OB98/GEN NMR

erre ene a

0 1
  C      147.921     273.863     497.291
  O      148.846     272.964     496.698
  P      150.386     272.944     497.136
  C      150.875     270.510     496.462
  O      151.082     271.879     496.147
  C      151.260     269.635     495.272
  O      150.370     269.942     494.173
  C      152.668     269.846     494.714
  O      153.687     269.125     495.391
  C      152.507     269.283     493.305
  O      152.562     267.842     493.351
  C      151.096     269.755     492.932
  N      151.642     271.851     488.297
  C      151.652     270.569     488.715
  N      151.523     270.087     489.968
  C      151.318     271.095     490.836
  C      151.281     272.453     490.556
  C      151.450     272.824     489.215
  N      151.422     274.137     488.781
  N      151.071     273.182     491.715
  C      150.975     272.276     492.666
  N      151.110     271.005     492.188
  O      150.611     272.728     498.592
  O      150.969     274.342     496.615
  H      153.480     267.603     493.585
  H      151.812     274.545     497.061
  H      151.787     269.814     487.935
  H      150.814     272.502     493.713
  H      150.550     269.008     492.342
  H      153.299     269.610     492.626
  H      152.915     270.916     494.651
  H      151.107     268.586     495.546
  H      149.810     270.365     496.689
  H      151.423     274.302     487.788
  H      151.113     274.849     489.441
  H      151.452     270.236     497.354
  P      154.897     269.979     496.031
  C      156.339     267.966     496.868
  O      156.186     269.021     495.955
  O      154.600     270.563     497.373
  O      155.186     271.080     494.899
  H      155.542     270.735     494.062
  H      157.189     267.350     496.551
  H      155.450     267.338     496.903
  H      156.554     268.362     497.875
  H      146.953     273.714     496.860
  H      148.239     274.869     497.115
  H      147.874     273.683     498.345

 3  4  5  6  7  8  9  10  11  12  22  25  29  30  31  32 0
 6-311+G(2d,p)
 ****
 33  36  37 0
 6-311+G(2d,p)
 ****
 1  2  13  14  15  16  17  18  19  20  21  23  24  26 0
 3-21G
 ****
 27  28  34  35  38  39  40  41  42  43  44  45  46  47  48 0
 3-21G
 ****


