%nproc=1
%NoSave
%Mem=1900MB
#P OB98/GEN NMR

erre ene a

0 1
  C      247.346     443.973     310.097
  O      247.663     443.453     308.817
  H      248.014     444.805     310.315
  H      247.481     443.203     310.861
  H      246.316     444.332     310.108
  P      246.856     442.143     308.360
  C      248.278     441.980     306.173
  O      247.901     441.379     307.403
  C      249.176     441.034     305.382
  O      250.433     440.826     306.075
  C      248.603     439.638     305.170
  O      247.616     439.580     304.155
  C      249.870     438.890     304.782
  O      250.229     439.222     303.427
  C      250.878     439.473     305.792
  N      250.962     438.696     307.037
  C      251.408     437.372     306.921
  O      251.708     436.906     305.820
  N      251.468     436.592     308.052
  C      251.137     437.091     309.206
  N      251.211     436.279     310.288
  C      250.675     438.483     309.371
  C      250.608     439.218     308.261
  O      245.781     442.713     307.318
  O      246.283     441.309     309.454
  H      249.464     438.991     302.867
  H      245.324     441.962     306.858
  H      250.380     438.854     310.348
  H      250.278     440.251     308.308
  H      251.879     439.540     305.355
  H      249.759     437.805     304.818
  H      248.217     439.215     306.115
  H      249.410     441.522     304.418
  H      251.478     435.304     310.129
  H      248.806     442.908     306.394
  H      250.834     436.528     311.194
  H      247.383     442.204     305.583
  P      246.385     438.572     304.373
  C      246.002     438.431     301.799
  O      246.221     437.730     303.016
  O      245.105     439.542     304.367
  O      246.448     437.749     305.631
  H      244.415     439.220     304.971
  H      245.915     437.731     300.995
  H      246.826     439.088     301.612
  H      245.100     439.002     301.874

 6  7  8  9  10  11  12  13  14  15  16  26  30  31  32  33  35 0
 6-311+G(2d,p)
 ****
 37  38 0
 6-311+G(2d,p)
 ****
 1  2  3  4  5  17  18  19  20  21  22  23  24  25 0
 3-21G
 ****
 27  28  29  34  36  39  40  41  42  43  44  45  46 0
 3-21G
 ****


