%nproc=1
%NoSave
%Mem=1900MB
#P OB98/GEN NMR

erre ene a

0 1
  C     -516.257     118.045    -566.601
  O     -515.886     117.160    -565.558
  P     -515.315     117.806    -564.207
  C     -515.467     115.598    -562.815
  O     -514.638     116.615    -563.360
  C     -514.602     114.491    -562.192
  O     -513.853     113.793    -563.225
  C     -513.552     115.024    -561.222
  O     -514.133     115.321    -559.955
  C     -512.556     113.864    -561.177
  O     -512.989     112.858    -560.256
  C     -512.610     113.353    -562.633
  N     -511.452     113.761    -563.419
  C     -510.219     113.243    -562.998
  O     -510.095     112.523    -562.020
  N     -509.131     113.630    -563.730
  C     -509.133     114.517    -564.778
  O     -508.124     114.876    -565.368
  C     -510.463     115.052    -565.152
  C     -511.541     114.659    -564.470
  O     -516.634     118.174    -563.367
  O     -514.433     118.989    -564.411
  H     -512.931     113.250    -559.358
  H     -516.481     118.995    -562.856
  H     -508.241     113.263    -563.463
  H     -510.502     115.744    -565.997
  H     -512.517     115.054    -564.728
  H     -512.645     112.248    -562.635
  H     -511.567     114.203    -560.862
  H     -513.068     115.907    -561.645
  H     -515.264     113.761    -561.700
  H     -516.087     115.174    -563.628
  H     -516.133     116.034    -562.056
  P     -513.317     116.341    -559.006
  C     -514.626     115.613    -556.852
  O     -513.381     115.681    -557.549
  O     -514.354     117.567    -558.957
  O     -511.975     116.677    -559.531
  H     -515.288     117.285    -559.003
  H     -515.464     115.428    -557.525
  H     -514.790     116.540    -556.307
  H     -514.564     114.778    -556.135
  H     -516.618     117.481    -567.436
  H     -515.406     118.620    -566.900
  H     -517.027     118.702    -566.254

 3  4  5  6  7  8  9  10  11  12  13  23  28  29  30  31  32 0
 6-311+G(2d,p)
 ****
 33  34 0
 6-311+G(2d,p)
 ****
 1  2  14  15  16  17  18  19  20  21  22  24  25  26 0
 3-21G
 ****
 27  35  36  37  38  39  40  41  42  43  44  45 0
 3-21G
 ****


