%nproc=1
%NoSave
%Mem=1900MB
#P OB98/GEN NMR

erre ene a

0 1
  C     -310.965     816.211    -378.255
  O     -312.217     816.835    -378.418
  H     -310.479     816.617    -377.357
  H     -310.322     816.424    -379.118
  H     -311.076     815.132    -378.133
  P     -313.105     816.345    -379.666
  C     -312.614     815.108    -381.910
  O     -312.084     815.660    -380.704
  C     -311.593     815.246    -383.032
  O     -311.412     816.648    -383.354
  C     -310.208     814.725    -382.677
  O     -310.129     813.309    -382.784
  C     -309.344     815.450    -383.708
  O     -309.339     814.776    -384.969
  C     -310.051     816.802    -383.841
  N     -308.093     821.500    -384.183
  C     -308.762     820.731    -385.076
  N     -309.265     819.486    -384.895
  C     -309.034     819.053    -383.642
  C     -308.366     819.727    -382.624
  C     -307.885     821.011    -382.945
  N     -307.168     821.780    -382.047
  N     -308.287     818.943    -381.491
  C     -308.912     817.827    -381.809
  N     -309.379     817.851    -383.099
  O     -313.510     817.722    -380.384
  O     -314.306     815.521    -379.315
  H     -309.234     813.825    -384.775
  H     -314.388     818.011    -380.069
  H     -308.906     821.158    -386.061
  H     -309.039     816.969    -381.157
  H     -310.125     817.131    -384.879
  H     -308.302     815.523    -383.368
  H     -309.914     815.046    -381.667
  H     -311.987     814.747    -383.922
  H     -313.522     815.658    -382.178
  H     -312.867     814.051    -381.738
  H     -306.837     822.679    -382.346
  H     -306.915     821.383    -381.154
  P     -308.866     812.563    -382.143
  C     -306.378     812.163    -382.826
  O     -307.611     812.825    -383.103
  O     -309.192     811.005    -382.364
  O     -308.615     812.874    -380.700
  H     -309.538     810.616    -381.552
  H     -305.649     812.446    -383.557
  H     -306.526     811.104    -382.861
  H     -306.034     812.443    -381.852

 6  7  8  9  10  11  12  13  14  15  25  28  32  33  34  35 0
 6-311+G(2d,p)
 ****
 36  37  40 0
 6-311+G(2d,p)
 ****
 1  2  3  4  5  16  17  18  19  20  21  22  23  24 0
 3-21G
 ****
 26  27  29  30  31  38  39 41  42  43  44  45  46  47  48 0
 3-21G
 ****


