%nproc=1
%NoSave
%Mem=1900MB
#P OB98/GEN NMR

erre ene a

0 1
  C      578.335    -130.748     -70.875
  O      578.174    -131.483     -69.664
  P      579.046    -132.802     -69.384
  C      578.509    -133.559     -67.002
  O      578.239    -133.767     -68.386
  C      577.548    -132.561     -66.334
  O      576.192    -132.748     -66.810
  C      577.504    -132.634     -64.808
  O      577.274    -131.294     -64.358
  C      576.285    -133.506     -64.560
  O      575.781    -133.378     -63.242
  C      575.352    -133.019     -65.678
  N      574.309    -133.997     -65.992
  C      573.357    -134.243     -65.007
  O      573.445    -133.698     -63.907
  N      572.347    -135.138     -65.268
  C      572.351    -135.799     -66.388
  N      571.342    -136.696     -66.580
  C      573.391    -135.635     -67.422
  C      574.322    -134.715     -67.161
  O      580.462    -132.542     -68.987
  O      578.996    -133.596     -70.780
  H      575.680    -132.422     -63.037
  H      579.819    -134.111     -70.887
  H      573.373    -136.227     -68.326
  H      575.126    -134.511     -67.861
  H      574.867    -132.079     -65.390
  H      576.547    -134.558     -64.715
  H      578.413    -133.042     -64.362
  H      577.859    -131.554     -66.651
  H      570.668    -136.801     -65.834
  H      579.534    -133.193     -66.899
  H      571.322    -137.335     -67.356
  H      578.454    -134.526     -66.485
  P      578.415    -130.430     -63.638
  C      577.380    -128.247     -64.461
  O      577.784    -128.994     -63.330
  O      579.723    -130.399     -64.353
  O      578.564    -131.089     -62.180
  H      579.415    -130.805     -61.790
  H      576.784    -127.388     -64.125
  H      576.788    -128.851     -65.141
  H      578.263    -127.870     -64.988
  H      577.671    -129.909     -70.874
  H      578.110    -131.380     -71.708
  H      579.345    -130.403     -70.951

 3  4  5  6  7  8  9  10  11  12  13  23  27  28  29  30  32 0
 6-311+G(2d,p)
 ****
 34  35 0
 6-311+G(2d,p)
 ****
 1  2  14  15  16  17  18  19  20  21  22  24  25  26 0
 3-21G
 ****
 31  33  36  37  38  39  40  41  42  43  44  45  46 0
 3-21G
 ****


