%nproc=1
%NoSave
%Mem=1900MB
#P OB98/GEN NMR

erre ene a

0 1
  C      359.558     295.518    -892.000
  O      358.405     295.628    -892.840
  P      358.624     295.757    -894.430
  C      357.169     294.623    -896.260
  O      357.211     295.538    -895.160
  C      355.809     294.642    -896.950
  O      354.736     294.224    -896.030
  C      355.385     296.062    -897.380
  O      356.116     296.626    -898.450
  C      353.891     295.925    -897.550
  O      353.542     295.360    -898.810
  C      353.524     294.912    -896.410
  N      352.910     295.556    -895.250
  C      351.548     295.288    -895.050
  O      350.887     294.582    -895.810
  N      350.993     295.869    -893.950
  C      351.614     296.735    -893.090
  O      351.046     297.244    -892.130
  C      353.032     297.019    -893.350
  C      353.598     296.412    -894.420
  O      359.773     295.015    -895.010
  O      358.833     297.349    -894.620
  H      352.576     295.194    -898.810
  H      359.546     297.479    -895.290
  H      350.011     295.682    -893.780
  H      353.551     297.680    -892.700
  H      354.645     296.611    -894.630
  H      352.839     294.132    -896.790
  H      353.370     296.889    -897.460
  H      355.549     296.733    -896.530
  H      355.824     293.956    -897.770
  H      357.414     293.607    -895.900
  H      357.983     294.871    -896.960
  P      356.994     297.969    -898.290
  C      359.300     298.797    -899.190
  O      358.207     297.893    -899.340
  O      357.323     298.421    -896.900
  O      356.027     299.062    -899.010
  H      356.172     299.928    -898.550
  H      360.024     298.624    -900.000
  H      359.791     298.644    -898.240
  H      358.948     299.826    -899.270
  H      359.249     295.441    -890.979
  H      360.172     296.386    -892.122
  H      360.115     294.646    -892.271

 3  4  5  6  7  8  9  10  11  12  13  23  28  29  30  31  32 0
 6-311+G(2d,p)
 ****
 33  34 0
 6-311+G(2d,p)
 ****
 1  2  14  15  16  17  18  19  20  21  22  24  25  26  27 0
 3-21G
 ****
 35  36  37  38  39  40  41  42  43  44  45 0
 3-21G
 ****


