%nproc=1
%NoSave
%Mem=1900MB
#P OB98/GEN NMR

erre ene a

0 1
  C      353.676      30.913    -236.176
  O      354.291      31.541    -237.308
  P      355.784      32.095    -237.128
  C      356.999      30.467    -238.760
  O      356.601      31.805    -238.474
  C      356.880      30.189    -240.257
  O      355.504      30.028    -240.652
  C      357.414      31.324    -241.119
  O      358.824      31.290    -241.165
  C      356.745      31.042    -242.460
  O      357.550      30.182    -243.287
  C      355.429      30.342    -242.057
  N      354.249      31.140    -242.354
  C      354.008      31.387    -243.710
  O      354.782      30.959    -244.568
  N      352.912      32.137    -244.054
  C      352.141      32.619    -243.125
  N      351.076      33.356    -243.527
  C      352.380      32.403    -241.683
  C      353.441      31.659    -241.371
  O      356.428      31.074    -236.075
  O      355.851      33.505    -236.635
  H      357.941      29.523    -242.676
  H      357.077      31.533    -235.513
  H      351.716      32.828    -240.947
  H      353.695      31.451    -240.338
  H      355.328      29.383    -242.583
  H      356.587      31.965    -243.027
  H      357.065      32.288    -240.726
  H      357.425      29.261    -240.484
  H      350.943      33.488    -244.523
  H      356.378      29.763    -238.199
  H      350.416      33.782    -242.891
  H      358.027      30.322    -238.410
  P      359.567      32.378    -242.080
  C      361.085      33.227    -240.192
  O      361.022      32.546    -241.428
  O      358.845      33.737    -241.626
  O      359.515      32.182    -243.558
  H      359.148      34.478    -242.188
  H      362.079      33.089    -239.765
  H      360.346      32.825    -239.492
  H      360.912      34.293    -240.347
  H      352.689      30.594    -236.438
  H      353.622      31.611    -235.366
  H      354.258      30.066    -235.879

 3  4  5  6  7  8  9  10  11  12  13  21  23  27  28  29  30  32 0
 6-311+G(2d,p)
 ****
 34  35 0
 6-311+G(2d,p)
 ****
 1  2  14  15  16  17  18  19  20  22  24  25  26 0
 3-21G
 ****
 31  33  36  37  38  39  40  41  42  43  44  45  46 0
 3-21G
 ****


