%nproc=1
%NoSave
%Mem=1900MB
#P OB98/GEN NMR

erre ene a

0 1
  C       81.272    -164.964     -61.657
  O       82.151    -165.143     -60.566
  H       80.520    -165.755     -61.633
  H       81.815    -165.024     -62.605
  H       80.765    -163.998     -61.581
  P       83.420    -164.172     -60.440
  C       83.980    -162.130     -58.956
  O       82.961    -162.933     -59.533
  C       83.407    -161.232     -57.853
  O       82.450    -160.309     -58.445
  C       82.669    -162.001     -56.745
  O       82.811    -161.253     -55.535
  C       81.238    -161.947     -57.245
  O       80.325    -162.302     -56.236
  C       81.188    -160.511     -57.774
  N       80.057    -160.280     -58.660
  C       78.841    -159.968     -58.042
  O       78.767    -159.908     -56.814
  N       77.738    -159.757     -58.828
  C       77.820    -159.914     -60.112
  N       76.686    -159.705     -60.832
  C       79.069    -160.303     -60.799
  C       80.141    -160.462     -60.020
  O       84.081    -163.797     -61.727
  O       84.424    -164.970     -59.482
  H       80.367    -161.669     -55.486
  H       85.153    -165.346     -60.009
  H       79.082    -160.440     -61.869
  H       81.102    -160.750     -60.433
  H       81.136    -159.789     -56.948
  H       81.088    -162.657     -58.065
  H       83.046    -163.018     -56.609
  H       84.221    -160.622     -57.437
  H       75.850    -159.450     -60.318
  H       84.407    -161.514     -59.754
  H       76.626    -159.819     -61.832
  H       84.771    -162.763     -58.541
  P       83.638    -161.791     -54.270
  C       85.962    -162.725     -54.900
  O       85.207    -161.576     -54.529
  O       83.276    -163.181     -53.852
  O       83.313    -160.753     -53.089
  H       83.344    -161.222     -52.236
  H       86.986    -162.448     -55.042
  H       85.572    -163.129     -55.811
  H       85.896    -163.461     -54.126

 6  7  8  9  10  11  12  13  14  15  16  26  30  31  32  33  35 0
 6-311+G(2d,p)
 ****
 37  38 0
 6-311+G(2d,p)
 ****
 1  2  3  4  5  17  18  19  20  21  22  23  24  25 0
 3-21G
 ****
 27  28  29  34  36  39  40  41  42  43  44  45  46 0
 3-21G
 ****


