%nproc=1
%NoSave
%Mem=1900MB
#P OB98/GEN NMR

erre ene a

0 1
  C     -109.834     -75.965     -63.779
  O     -108.495     -76.423     -63.815
  H     -110.074     -75.668     -62.754
  H     -110.526     -76.753     -64.088
  H     -109.950     -75.091     -64.430
  P     -107.985     -77.152     -65.152
  C     -106.673     -78.967     -63.860
  O     -106.593     -77.855     -64.751
  C     -105.336     -79.710     -63.788
  O     -105.058     -80.356     -65.043
  C     -104.143     -78.796     -63.533
  O     -104.109     -78.229     -62.241
  C     -102.973     -79.644     -64.014
  O     -102.467     -80.532     -63.020
  C     -103.620     -80.457     -65.163
  N     -103.148     -80.029     -66.474
  C     -101.770     -79.965     -66.635
  O     -100.969     -80.225     -65.732
  N     -101.334     -79.544     -67.858
  C     -102.120     -79.144     -68.899
  O     -101.665     -78.734     -69.961
  C     -103.573     -79.206     -68.662
  C     -104.016     -79.642     -67.481
  O     -107.895     -76.291     -66.375
  O     -108.983     -78.394     -65.313
  H     -101.653     -80.933     -63.384
  H     -108.945     -78.763     -66.230
  H     -100.333     -79.503     -67.997
  H     -104.236     -78.892     -69.467
  H     -105.083     -79.699     -67.279
  H     -103.375     -81.522     -65.054
  H     -102.134     -79.024     -64.343
  H     -104.211     -77.947     -64.226
  H     -105.412     -80.485     -63.015
  H     -107.443     -79.649     -64.244
  H     -106.974     -78.622     -62.866
  P     -104.881     -76.889     -61.849
  C     -102.655     -75.617     -61.398
  O     -103.920     -76.021     -60.888
  O     -106.328     -77.020     -61.489
  O     -104.801     -76.064     -63.233
  H     -105.627     -75.545     -63.313
  H     -102.134     -75.053     -60.653
  H     -102.798     -75.011     -62.268
  H     -102.082     -76.483     -61.656

 6  7  8  9  10  11  12  13  14  15  16  26  31  32  33  34  35 0
 6-311+G(2d,p)
 ****
 36  37 0
 6-311+G(2d,p)
 ****
 1  2  3  4  5  17  18  19  20  21  22  23  24  25 0
 3-21G
 ****
 27  28  29  30  38  39  40  41  42  43  44  45 0
 3-21G
 ****


