%nproc=1
%NoSave
%Mem=1900MB
#P OB98/GEN NMR

erre ene a

0 1
  C     -117.782     -18.077     -46.298
  O     -117.751     -18.742     -47.568
  P     -117.829     -17.966     -48.971
  C     -120.321     -18.416     -49.460
  O     -119.327     -17.435     -49.203
  C     -121.251     -17.999     -50.605
  O     -122.376     -18.925     -50.699
  C     -121.835     -16.582     -50.465
  O     -121.863     -16.019     -51.780
  C     -123.238     -16.870     -49.952
  O     -124.139     -15.791     -50.121
  C     -123.568     -18.116     -50.779
  N     -124.735     -18.871     -50.338
  C     -125.999     -18.386     -50.699
  O     -126.128     -17.330     -51.316
  N     -127.108     -19.108     -50.330
  C     -126.976     -20.208     -49.658
  N     -128.114     -20.877     -49.334
  C     -125.669     -20.743     -49.241
  C     -124.605     -20.034     -49.613
  O     -117.298     -18.756     -50.123
  O     -116.975     -16.627     -48.767
  H     -116.514     -16.411     -49.599
  H     -125.045     -16.146     -50.069
  H     -125.602     -21.668     -48.687
  H     -123.605     -20.377     -49.370
  H     -123.691     -17.831     -51.830
  H     -123.181     -17.092     -48.882
  H     -121.248     -15.928     -49.813
  H     -120.692     -18.089     -51.545
  H     -128.993     -20.484     -49.647
  H     -120.917     -18.552     -48.553
  H     -128.127     -21.746     -48.820
  H     -119.831     -19.368     -49.694
  P     -120.678     -15.046     -52.251
  C     -121.721     -12.763     -51.557
  O     -120.727     -13.739     -51.326
  O     -121.248     -14.483     -53.643
  O     -119.343     -15.683     -52.462
  H     -120.501     -14.217     -54.209
  H     -122.142     -12.457     -50.596
  H     -122.530     -13.136     -52.190
  H     -121.264     -11.894     -52.036
  H     -117.717     -18.802     -45.514
  H     -118.697     -17.531     -46.204
  H     -116.955     -17.402     -46.229

 3  4  5  6  7  8  9  10  11  12  13  24  27  28  29  30  32 0
 6-311+G(2d,p)
 ****
 34  35 0
 6-311+G(2d,p)
 ****
 1  2  14  15  16  17  18  19  20  21  22  23  25  26 0
 3-21G
 ****
 31  33  36  37  38  39  40  41  42  43  44  45  46 0
 3-21G
 ****


