%nproc=1
%NoSave
%Mem=1900MB
#P OB98/GEN NMR

erre ene a

0 1
  C      -13.223     -87.738      -9.851
  O      -13.435     -89.091      -9.522
  P      -14.352     -90.079     -10.373
  C      -16.907     -90.631     -10.406
  O      -15.886     -89.676     -10.144
  C      -18.238     -89.938     -10.736
  O      -18.034     -89.071     -11.882
  C      -19.321     -90.955     -11.131
  O      -20.604     -90.677     -10.587
  C      -19.202     -91.006     -12.649
  O      -20.360     -91.514     -13.293
  C      -18.832     -89.563     -12.979
  N      -18.897     -89.937     -18.045
  C      -19.951     -89.989     -17.156
  N      -21.141     -90.368     -17.669
  N      -19.834     -89.729     -15.880
  C      -18.563     -89.475     -15.493
  C      -17.439     -89.394     -16.282
  C      -17.587     -89.651     -17.694
  O      -16.660     -89.728     -18.500
  N      -16.308     -89.184     -15.537
  C      -16.741     -89.172     -14.293
  N      -18.099     -89.378     -14.214
  O      -13.992     -91.528     -10.333
  O      -14.088     -89.552     -11.877
  H      -20.162     -91.577     -14.246
  H      -14.125     -90.332     -12.465
  H      -19.034     -90.228     -19.006
  H      -16.117     -89.050     -13.415
  H      -19.719     -88.931     -13.057
  H      -18.378     -91.686     -12.892
  H      -21.229     -90.717     -18.614
  H      -19.084     -91.944     -10.724
  H      -21.859     -90.654     -17.009
  H      -18.537     -89.311      -9.890
  H      -17.010     -91.229      -9.494
  H      -16.609     -91.301     -11.215
  P      -21.783     -91.692     -10.232
  C      -22.555     -93.525     -11.852
  O      -22.504     -92.135     -11.591
  O      -22.899     -90.799      -9.514
  O      -21.383     -92.827      -9.347
  H      -23.293     -91.300      -8.775
  H      -22.810     -93.676     -12.904
  H      -23.326     -93.986     -11.230
  H      -21.587     -93.994     -11.650
  H      -12.572     -87.293      -9.128
  H      -14.160     -87.221      -9.854
  H      -12.776     -87.673     -10.821

 3  4  5  6  7  8  9  10  11  12  23  26  30  31 0
 6-311+G(2d,p)
 ****
 33  35  36  37  38 0
 6-311+G(2d,p)
 ****
 1  2  13  14  15  16  17  18  19  20  21  22  24  25 0
 3-21G
 ****
 27  28  29  32  34  39  40  41  42  43  44  45  46  47  48  49 0
 3-21G
 ****


