%nproc=1
%NoSave
%Mem=1900MB
#P OB98/GEN NMR

erre ene a

0 1
  C      629.500     522.092      44.304
  O      629.052     521.880      42.978
  H      628.799     521.615      44.994
  H      629.537     523.161      44.538
  H      630.491     521.649      44.446
  P      629.833     522.618      41.789
  C      627.622     523.840      41.223
  O      629.008     523.965      41.505
  C      626.974     525.220      41.173
  O      626.832     525.756      42.504
  C      627.786     526.242      40.400
  O      627.668     526.038      39.004
  C      627.201     527.536      40.922
  O      625.959     527.847      40.273
  C      626.974     527.191      42.413
  N      628.055     527.668      43.273
  C      627.800     528.843      43.988
  O      626.715     529.418      43.878
  N      628.791     529.349      44.786
  C      629.930     528.733      44.888
  N      630.870     529.285      45.701
  C      630.232     527.477      44.162
  C      629.257     527.014      43.381
  O      630.124     521.805      40.564
  O      631.172     523.151      42.488
  H      625.413     527.037      40.339
  H      631.877     522.479      42.430
  H      631.191     526.997      44.279
  H      629.405     526.097      42.816
  H      626.032     527.628      42.769
  H      627.879     528.378      40.763
  H      628.841     526.198      40.707
  H      625.965     525.114      40.744
  H      630.618     530.151      46.168
  H      627.180     523.243      42.027
  H      631.749     528.851      45.920
  H      627.466     523.313      40.271
  P      628.679     526.747      37.983
  C      626.665     527.648      36.643
  O      627.854     527.980      37.355
  O      629.333     525.841      36.995
  O      629.724     527.483      38.956
  H      630.342     526.836      39.373
  H      626.208     528.543      36.276
  H      625.986     527.144      37.298
  H      626.909     527.008      35.821

 6  7  8  9  10  11  12  13  14  15  16  26  30  31  32  33  35 0
 6-311+G(2d,p)
 ****
 37  38 0
 6-311+G(2d,p)
 ****
 1  2  3  4  5  17  18  19  20  21  22  23  24  25 0
 3-21G
 ****
 27  28  29  34  36  39  40  41  42  43  44  45  46 0
 3-21G
 ****


