%nproc=1
%NoSave
%Mem=1900MB
#P OB98/GEN NMR

erre ene a

0 1
  C     -892.578    1230.601     528.940
  O     -893.538    1229.621     528.612
  H     -892.738    1231.481     528.322
  H     -891.578    1230.229     528.757
  H     -892.668    1230.895     530.001
  P     -893.398    1228.196     529.357
  C     -893.208    1227.191     526.964
  O     -893.828    1227.133     528.227
  C     -893.748    1226.071     526.055
  O     -893.318    1224.776     526.535
  C     -895.268    1226.003     526.016
  O     -895.848    1226.977     525.161
  C     -895.448    1224.594     525.437
  O     -895.118    1224.607     524.020
  C     -894.368    1223.834     526.253
  N     -894.908    1223.247     527.504
  C     -895.618    1222.036     527.356
  O     -895.788    1221.513     526.252
  N     -896.168    1221.458     528.474
  C     -895.988    1222.043     529.633
  N     -896.558    1221.424     530.704
  C     -895.238    1223.293     529.837
  C     -894.718    1223.824     528.726
  O     -894.628    1228.174     530.370
  O     -892.058    1227.934     529.986
  H     -895.778    1225.158     523.590
  H     -894.708    1227.275     530.782
  H     -895.148    1223.730     530.800
  H     -894.178    1224.764     528.777
  H     -893.938    1223.022     525.631
  H     -896.458    1224.197     525.536
  H     -895.708    1226.014     526.998
  H     -893.318    1226.212     525.062
  H     -897.098    1220.592     530.543
  H     -892.128    1227.068     527.086
  H     -896.618    1221.841     531.643
  H     -893.398    1228.160     526.489
  P     -896.738    1228.119     525.870
  C     -899.188    1227.451     525.310
  O     -898.088    1228.275     524.992
  O     -895.928    1229.455     525.531
  O     -896.978    1227.949     527.346
  H     -895.998    1230.106     526.263
  H     -900.000    1227.668     524.648
  H     -899.492    1227.635     526.319
  H     -898.907    1226.424     525.204

 6  7  8  9  10  11  12  13  14  15  16  26  30  31  32  33  35 0
 6-311+G(2d,p)
 ****
 37  38 0
 6-311+G(2d,p)
 ****
 1  2  3  4  5  17  18  19  20  21  22  23  24  25 0
 3-21G
 ****
 27  28  29  34  36  39  40  41  42  43  44  45  46 0
 3-21G
 ****


