%nproc=1
%NoSave
%Mem=1900MB
#P OB98/GEN NMR

erre ene a

0 1
  C     -499.756    -273.023      31.802
  O     -500.199    -274.197      32.460
  P     -499.083    -275.280      32.862
  C     -498.962    -274.266      35.259
  O     -498.254    -274.661      34.088
  C     -498.472    -275.061      36.464
  O     -497.071    -274.806      36.698
  C     -499.173    -274.726      37.773
  O     -500.470    -275.300      37.824
  C     -498.180    -275.300      38.778
  O     -498.344    -276.727      38.869
  C     -496.830    -274.965      38.123
  N     -494.951    -272.676      42.301
  C     -495.506    -273.892      42.111
  N     -496.003    -274.423      40.977
  C     -495.881    -273.557      39.953
  C     -495.359    -272.275      39.999
  C     -494.877    -271.836      41.243
  N     -494.317    -270.591      41.432
  N     -495.424    -271.676      38.762
  C     -495.962    -272.585      37.978
  N     -496.243    -273.743      38.648
  O     -498.049    -275.207      31.645
  O     -499.603    -276.666      33.076
  H     -497.665    -277.055      39.493
  H     -497.662    -276.083      31.463
  H     -495.555    -274.531      42.993
  H     -496.164    -272.452      36.921
  H     -496.092    -275.768      38.242
  H     -498.303    -274.890      39.786
  H     -499.243    -273.638      37.899
  H     -498.589    -276.128      36.232
  H     -500.032    -274.455      35.121
  H     -494.135    -270.299      42.382
  H     -494.389    -269.914      40.681
  H     -498.816    -273.190      35.413
  P     -501.502    -274.693      38.893
  C     -502.986    -273.784      36.999
  O     -502.174    -273.458      38.118
  O     -500.515    -273.967      39.918
  O     -502.448    -275.681      39.487
  H     -499.858    -273.407      39.464
  H     -503.418    -272.863      36.602
  H     -503.789    -274.460      37.303
  H     -502.375    -274.255      36.219
  H     -500.595    -272.393      31.594
  H     -499.273    -273.289      30.885
  H     -499.065    -272.501      32.431

 3  4  5  6  7  8  9  10  11  12  22  25  29  30  31  32 0
 6-311+G(2d,p)
 ****
 33  36  37 0
 6-311+G(2d,p)
 ****
 1  2  13  14  15  16  17  18  19  20  21  23  24  26 0
 3-21G
 ****
 27  28  34  35  38  39  40  41  42  43  44  45  46  47  48 0
 3-21G
 ****


