%nproc=1
%NoSave
%Mem=1900MB
#P OB98/GEN NMR

erre ene a

0 1
  C     -548.380    -147.564    -243.951
  O     -547.094    -146.959    -244.132
  P     -546.038    -147.172    -242.940
  C     -547.006    -145.030    -241.836
  O     -546.572    -146.368    -241.658
  C     -547.606    -144.475    -240.544
  O     -546.699    -144.572    -239.431
  C     -547.997    -143.003    -240.643
  O     -549.238    -142.874    -241.312
  C     -548.064    -142.603    -239.175
  O     -549.341    -142.942    -238.594
  C     -546.949    -143.448    -238.544
  N     -544.518    -140.243    -235.450
  C     -545.848    -140.634    -235.456
  N     -546.633    -140.107    -234.495
  N     -546.357    -141.455    -236.338
  C     -545.452    -141.904    -237.241
  C     -544.108    -141.613    -237.318
  C     -543.557    -140.699    -236.347
  O     -542.386    -140.344    -236.276
  N     -543.503    -142.306    -238.334
  C     -544.506    -142.906    -238.952
  N     -545.700    -142.750    -238.286
  O     -544.766    -146.328    -243.425
  O     -545.692    -148.605    -242.704
  H     -549.682    -143.755    -239.015
  H     -544.038    -146.938    -243.665
  H     -544.181    -139.602    -234.755
  H     -544.416    -143.489    -239.858
  H     -547.261    -143.871    -237.576
  H     -547.946    -141.527    -239.039
  H     -546.311    -139.471    -233.785
  H     -547.208    -142.438    -241.149
  H     -547.608    -140.382    -234.479
  H     -548.496    -145.079    -240.313
  H     -547.744    -144.982    -242.641
  H     -546.150    -144.424    -242.160
  P     -549.215    -142.469    -242.866
  C     -549.632    -139.979    -242.250
  O     -548.836    -140.910    -242.952
  O     -550.762    -142.518    -243.281
  O     -548.398    -143.374    -243.726
  H     -550.856    -142.963    -244.145
  H     -549.013    -139.128    -241.967
  H     -550.071    -140.415    -241.346
  H     -550.438    -139.632    -242.907
  H     -548.995    -147.357    -244.802
  H     -548.841    -147.165    -243.072
  H     -548.264    -148.622    -243.844

 3  4  5  6  7  8  9  10  11  12  23  26  30  31 0
 6-311+G(2d,p)
 ****
 33  35  36  37  38 0
 6-311+G(2d,p)
 ****
 1  2  13  14  15  16  17  18  19  20  21  22  24  25 0
 3-21G
 ****
 27  28  29  32  34  39  40  41  42  43  44  45  46  47  48  49 0
 3-21G
 ****


