%nproc=1
%NoSave
%Mem=1900MB
#P OB98/GEN NMR

erre ene a

0 1
  C      820.447    -344.486     327.866
  O      821.162    -345.609     328.340
  H      820.885    -343.583     328.297
  H      819.404    -344.559     328.180
  H      820.509    -344.415     326.776
  P      820.924    -347.033     327.649
  C      821.404    -348.041     325.320
  O      821.308    -346.851     326.099
  C      822.073    -347.758     323.967
  O      821.184    -346.917     323.176
  C      823.415    -347.027     324.078
  O      824.227    -347.445     322.968
  C      822.998    -345.582     323.908
  O      824.096    -344.751     323.570
  C      821.915    -345.718     322.836
  N      821.046    -344.542     322.758
  C      821.188    -343.740     321.635
  O      822.020    -343.952     320.754
  N      820.380    -342.644     321.583
  C      819.496    -342.245     322.547
  O      818.820    -341.225     322.459
  C      819.413    -343.110     323.737
  C      820.182    -344.210     323.785
  O      819.592    -347.659     327.893
  O      822.124    -347.946     328.195
  H      823.801    -343.821     323.483
  H      821.835    -348.879     328.244
  H      820.461    -342.040     320.763
  H      818.737    -342.825     324.527
  H      820.141    -344.870     324.646
  H      822.355    -345.872     321.848
  H      822.570    -345.186     324.837
  H      823.938    -347.212     325.019
  H      822.179    -348.708     323.427
  H      820.399    -348.428     325.168
  H      821.990    -348.793     325.876
  P      825.355    -348.580     323.110
  C      825.157    -351.031     323.892
  O      824.651    -350.022     323.019
  O      826.242    -348.404     324.297
  O      826.197    -348.491     321.754
  H      827.111    -348.790     321.913
  H      824.613    -351.940     323.740
  H      825.044    -350.713     324.908
  H      826.193    -351.197     323.683

 6  7  8  9  10  11  12  13  14  15  16  26  31  32  33  34  35 0
 6-311+G(2d,p)
 ****
 36  37 0
 6-311+G(2d,p)
 ****
 1  2  3  4  5  17  18  19  20  21  22  23  24  25 0
 3-21G
 ****
 27  28  29  30  38  39  40  41  42  43  44  45 0
 3-21G
 ****


