%nproc=1
%NoSave
%Mem=1900MB
#P OB98/GEN NMR

erre ene a

0 1
  C      206.909     -87.399    -111.273
  O      205.943     -86.796    -110.433
  H      206.415     -87.743    -112.184
  H      207.362     -88.256    -110.767
  H      207.682     -86.673    -111.541
  P      206.477     -86.207    -109.041
  C      206.027     -83.759    -109.815
  O      206.970     -84.713    -109.353
  C      206.659     -82.363    -109.864
  O      206.959     -81.938    -108.502
  C      207.981     -82.306    -110.647
  O      208.113     -80.983    -111.192
  C      209.004     -82.506    -109.541
  O      210.299     -82.167    -109.982
  C      208.372     -81.640    -108.455
  N      211.010     -79.658    -104.551
  C      210.590     -79.120    -105.716
  N      209.881     -79.707    -106.701
  C      209.587     -80.979    -106.383
  C      209.937     -81.659    -105.229
  C      210.690     -80.945    -104.282
  N      211.126     -81.490    -103.098
  N      209.457     -82.957    -105.263
  C      208.827     -83.052    -106.418
  N      208.886     -81.887    -107.129
  O      207.836     -87.015    -108.796
  O      205.537     -86.330    -107.889
  H      210.288     -81.320    -110.476
  H      207.667     -87.782    -108.219
  H      210.862     -78.081    -105.881
  H      208.324     -83.938    -106.787
  H      208.493     -80.571    -108.664
  H      209.042     -83.555    -109.231
  H      208.040     -83.040    -111.454
  H      205.927     -81.653    -110.262
  H      205.172     -83.756    -109.131
  H      205.686     -84.039    -110.816
  H      211.675     -80.915    -102.479
  H      210.910     -82.455    -102.893
  P      208.086     -80.787    -112.788
  C      205.489     -80.518    -112.943
  O      206.648     -81.238    -113.336
  O      209.022     -81.991    -113.286
  O      208.598     -79.478    -113.290
  H      209.441     -81.749    -114.133
  H      204.626     -80.955    -113.400
  H      205.580     -79.498    -113.254
  H      205.388     -80.558    -111.879

 6  7  8  9  10  11  12  13  14  15  25  28  32  33  34  35 0
 6-311+G(2d,p)
 ****
 36  37  40 0
 6-311+G(2d,p)
 ****
 1  2  3  4  5  16  17  18  19  20  21  22  23  24 0
 3-21G
 ****
 26  27  29  30  31  38  39 41  42  43  44  45  46  47  48 0
 3-21G
 ****


