%nproc=1
%NoSave
%Mem=1900MB
#P OB98/GEN NMR

erre ene a

0 1
  C      856.589    -390.373     688.125
  O      855.941    -389.589     687.132
  P      856.675    -389.386     685.717
  C      855.925    -391.590     684.453
  O      856.948    -390.808     685.041
  C      856.485    -392.314     683.217
  O      856.954    -391.355     682.239
  C      857.667    -393.231     683.542
  O      857.246    -394.517     683.936
  C      858.442    -393.219     682.234
  O      857.810    -394.092     681.276
  C      858.288    -391.745     681.807
  N      859.268    -390.758     682.338
  C      860.402    -390.445     681.597
  O      860.676    -390.927     680.496
  N      861.244    -389.511     682.140
  C      861.000    -388.764     683.246
  O      861.762    -387.896     683.672
  C      859.719    -389.017     683.917
  C      858.934    -389.997     683.449
  O      858.140    -388.876     686.118
  O      855.981    -388.443     684.791
  H      856.895    -393.776     681.154
  H      858.285    -387.962     685.793
  H      862.109    -389.318     681.656
  H      859.457    -388.409     684.773
  H      857.984    -390.206     683.938
  H      858.313    -391.654     680.716
  H      859.454    -393.607     682.371
  H      858.301    -392.772     684.313
  H      855.681    -392.893     682.758
  H      855.072    -390.967     684.161
  H      855.550    -392.314     685.176
  P      858.205    -395.456     684.809
  C      856.248    -396.694     685.902
  O      857.360    -395.849     686.119
  O      859.579    -394.905     685.080
  O      858.252    -396.830     684.002
  H      859.054    -396.862     683.423
  H      855.849    -397.013     686.872
  H      856.535    -397.572     685.328
  H      855.460    -396.132     685.377
  H      855.978    -390.413     689.003
  H      857.533    -389.932     688.368
  H      856.743    -391.364     687.752

 3  4  5  6  7  8  9  10  11  12  13  23  28  29  30  31  32 0
 6-311+G(2d,p)
 ****
 33  34 0
 6-311+G(2d,p)
 ****
 1  2  14  15  16  17  18  19  20  21  22  24  25  26  27 0
 3-21G
 ****
 35  36  37  38  39  40  41  42  43  44  45 0
 3-21G
 ****


