%nproc=1
%NoSave
%Mem=1900MB
#P OB98/GEN NMR

erre ene a

0 1
  C      107.842    -233.837     316.658
  O      106.573    -233.309     316.982
  H      108.369    -234.077     317.587
  H      108.428    -233.097     316.109
  H      107.746    -234.750     316.064
  P      105.514    -233.062     315.802
  C      105.429    -230.498     316.069
  O      104.713    -231.721     316.174
  C      104.464    -229.318     316.186
  O      105.174    -228.075     316.000
  C      103.350    -229.323     315.146
  O      102.356    -230.275     315.470
  C      102.893    -227.872     315.213
  O      102.027    -227.660     316.337
  C      104.245    -227.135     315.412
  N      104.785    -226.574     314.171
  C      105.479    -225.373     314.289
  O      105.613    -224.776     315.355
  N      106.001    -224.874     313.126
  C      105.827    -225.398     311.876
  O      106.275    -224.880     310.855
  C      105.052    -226.646     311.812
  C      104.577    -227.168     312.941
  O      104.654    -234.227     315.444
  O      106.427    -232.603     314.570
  H      101.999    -226.695     316.492
  H      106.563    -233.356     313.961
  H      106.499    -223.998     313.187
  H      104.892    -227.090     310.838
  H      104.001    -228.086     312.913
  H      104.126    -226.316     316.135
  H      102.344    -227.561     314.326
  H      103.763    -229.515     314.147
  H      104.047    -229.320     317.204
  H      105.930    -230.464     315.098
  H      106.187    -230.461     316.860
  P      102.043    -231.502     314.490
  C       99.757    -230.536     313.844
  O      100.444    -231.651     314.396
  O      102.772    -232.767     314.795
  O      102.438    -230.948     313.039
  H      103.277    -231.355     312.747
  H       98.706    -230.737     313.827
  H      100.103    -230.362     312.847
  H       99.945    -229.669     314.443

 6  7  8  9  10  11  12  13  14  15  16  26  31  32  33  34  35 0
 6-311+G(2d,p)
 ****
 36  37 0
 6-311+G(2d,p)
 ****
 1  2  3  4  5  17  18  19  20  21  22  23  24  25 0
 3-21G
 ****
 27  28  29  30  38  39  40  41  42  43  44  45 0
 3-21G
 ****


