%nproc=1
%NoSave
%Mem=1900MB
#P OB98/GEN NMR

erre ene a

0 1
  C       13.916      94.502    -252.986
  O       12.769      95.264    -252.664
  H       14.146      93.814    -252.164
  H       13.711      93.919    -253.888
  H       14.772      95.155    -253.171
  P       12.918      96.325    -251.470
  C       11.193      95.204    -249.878
  O       12.556      95.521    -250.123
  C       10.944      95.056    -248.374
  O        9.549      94.714    -248.160
  C       11.799      93.971    -247.713
  O       12.201      94.420    -246.417
  C       10.838      92.802    -247.574
  O       11.211      91.912    -246.525
  C        9.513      93.524    -247.340
  N        6.205      90.025    -245.629
  C        7.166      90.746    -245.004
  N        8.002      91.660    -245.540
  C        7.733      91.848    -246.842
  C        6.792      91.186    -247.621
  C        6.006      90.228    -246.956
  N        5.050      89.466    -247.587
  N        6.845      91.626    -248.928
  C        7.810      92.531    -248.945
  N        8.377      92.694    -247.710
  O       11.638      97.274    -251.693
  O       14.188      97.099    -251.441
  H       11.393      92.446    -245.723
  H       11.832      97.914    -252.408
  H        7.285      90.553    -243.944
  H        8.129      93.086    -249.818
  H        9.374      93.818    -246.299
  H       10.811      92.229    -248.514
  H       12.681      93.707    -248.300
  H       11.105      96.033    -247.895
  H       10.947      94.262    -250.383
  H        4.575      88.754    -247.055
  H        4.927      89.559    -248.591
  H       10.557      96.003    -250.282
  P       13.768      94.735    -246.223
  C       14.631      92.308    -245.968
  O       14.612      93.485    -246.759
  O       13.960      94.675    -244.631
  O       14.179      96.070    -246.770
  H       14.431      95.474    -244.322
  H       15.231      91.564    -246.450
  H       13.633      91.941    -245.851
  H       15.044      92.531    -245.006

 6  7  8  9  10  11  12  13  14  15  25  28  32  33  34  35 0
 6-311+G(2d,p)
 ****
 36  39  40 0
 6-311+G(2d,p)
 ****
 1  2  3  4  5  16  17  18  19  20  21  22  23  24 0
 3-21G
 ****
 26  27  29  30  31  37  38  41  42  43  44  45  46  47 0
 3-21G
 ****
 48 0
 3-21G
 ****


