%nproc=1
%NoSave
%Mem=1900MB
#P OB98/GEN NMR

erre ene a

0 1
  C        2.150     294.955     261.160
  O        3.399     295.360     261.670
  H        2.027     295.382     260.161
  H        1.337     295.317     261.793
  H        2.105     293.864     261.080
  P        3.760     295.030     263.201
  C        2.553     297.085     264.153
  O        2.549     295.665     264.056
  C        1.299     297.602     264.855
  O        1.368     299.047     264.980
  C       -0.009     297.262     264.129
  O       -0.961     296.758     265.068
  C       -0.471     298.604     263.575
  O       -1.877     298.638     263.350
  C        0.066     299.562     264.645
  N        0.134     300.946     264.185
  C        0.256     301.927     265.173
  O        0.263     301.606     266.367
  N        0.326     303.242     264.796
  C        0.232     303.558     263.543
  N        0.297     304.880     263.233
  C        0.055     302.560     262.470
  C        0.023     301.287     262.855
  O        5.124     295.464     263.628
  O        3.514     293.457     263.342
  H       -2.079     298.082     262.566
  H        4.002     293.117     264.133
  H       -0.029     302.874     261.439
  H       -0.093     300.482     262.135
  H       -0.559     299.529     265.546
  H        0.031     298.799     262.618
  H        0.119     296.530     263.336
  H        1.296     297.210     265.884
  H        0.418     305.537     263.999
  H        2.622     297.504     263.143
  H        0.228     305.243     262.295
  H        3.436     297.387     264.729
  P       -1.146     295.163     265.098
  C       -3.256     295.034     263.606
  O       -1.878     294.725     263.736
  O       -2.259     294.946     266.224
  O        0.115     294.419     265.410
  H       -1.842     294.671     267.064
  H       -3.611     294.688     262.658
  H       -3.392     296.093     263.673
  H       -3.805     294.554     264.389

 6  7  8  9  10  11  12  13  14  15  16  26  30  31  32  33  35 0
 6-311+G(2d,p)
 ****
 37  38 0
 6-311+G(2d,p)
 ****
 1  2  3  4  5  17  18  19  20  21  22  23  24  25 0
 3-21G
 ****
 27  28  29  34  36  39  40  41  42  43  44  45  46 0
 3-21G
 ****


