%nproc=1
%NoSave
%Mem=1900MB
#P OB98/GEN NMR

erre ene a

0 1
  C      347.365    -176.483      57.551
  O      347.617    -177.105      58.799
  P      347.217    -176.394      60.187
  C      344.954    -177.644      60.096
  O      345.615    -176.395      60.215
  C      343.527    -177.549      60.631
  O      343.580    -177.181      62.040
  C      342.648    -176.510      59.914
  O      341.313    -177.033      59.887
  C      342.728    -175.306      60.835
  O      341.643    -174.408      60.662
  C      342.781    -175.995      62.203
  N      343.342    -175.130      63.242
  C      342.488    -174.727      64.277
  O      341.308    -175.065      64.294
  N      343.007    -173.941      65.275
  C      344.232    -173.521      65.211
  N      344.710    -172.789      66.252
  C      345.130    -173.832      64.079
  C      344.626    -174.651      63.155
  O      347.842    -175.064      60.410
  O      347.573    -177.479      61.305
  H      341.790    -173.640      61.246
  H      348.521    -177.445      61.584
  H      346.134    -173.435      64.049
  H      345.221    -174.958      62.302
  H      341.783    -176.327      62.504
  H      343.658    -174.759      60.637
  H      342.980    -176.308      58.893
  H      343.068    -178.546      60.571
  H      344.126    -172.746      67.078
  H      345.506    -178.386      60.687
  H      345.708    -172.714      66.424
  H      344.960    -177.970      59.046
  P      340.440    -176.807      58.560
  C      339.474    -179.144      57.959
  O      340.469    -178.171      57.707
  O      341.405    -175.855      57.689
  O      339.108    -176.151      58.742
  H      340.863    -175.335      57.073
  H      339.646    -179.995      57.291
  H      338.483    -178.739      57.758
  H      339.545    -179.496      58.994
  H      347.705    -177.119      56.760
  H      347.886    -175.549      57.506
  H      346.314    -176.311      57.444

 3  4  5  6  7  8  9  10  11  12  13  23  27  28  29  30  32 0
 6-311+G(2d,p)
 ****
 34  35 0
 6-311+G(2d,p)
 ****
 1  2  14  15  16  17  18  19  20  21  22  24  25  26 0
 3-21G
 ****
 31  33  36  37  38  39  40  41  42  43  44  45  46 0
 3-21G
 ****


