%nproc=1
%NoSave
%Mem=1900MB
#P OB98/GEN NMR

erre ene a

0 1
  C      110.180     -31.371     -24.351
  O      110.155     -30.402     -25.396
  P      111.215     -30.320     -26.585
  C      113.015     -28.470     -26.128
  O      112.608     -29.821     -25.977
  C      114.469     -28.224     -25.689
  O      114.567     -28.350     -24.246
  C      115.395     -29.287     -26.280
  O      115.892     -29.144     -27.597
  C      116.477     -29.484     -25.228
  O      117.632     -28.681     -25.471
  C      115.788     -29.050     -23.931
  N      117.684     -32.691     -20.879
  C      118.353     -31.792     -21.685
  N      119.698     -31.904     -21.725
  N      117.757     -30.877     -22.400
  C      116.408     -30.932     -22.336
  C      115.630     -31.788     -21.591
  C      116.303     -32.761     -20.756
  O      115.758     -33.572     -20.015
  N      114.293     -31.561     -21.796
  C      114.262     -30.587     -22.682
  N      115.523     -30.164     -23.037
  O      110.741     -29.647     -27.828
  O      111.490     -31.870     -26.944
  H      118.303     -28.909     -24.804
  H      111.671     -31.905     -27.905
  H      118.195     -33.360     -20.330
  H      113.360     -30.149     -23.092
  H      116.413     -28.345     -23.369
  H      116.820     -30.526     -25.219
  H      120.207     -32.660     -21.294
  H      114.831     -30.229     -26.298
  H      120.173     -31.396     -22.474
  H      114.778     -27.202     -25.922
  H      112.328     -27.864     -25.531
  H      112.886     -28.154     -27.164
  P      115.241     -29.754     -28.927
  C      117.048     -31.566     -28.816
  O      115.675     -31.290     -29.030
  O      116.075     -29.074     -30.112
  O      113.779     -29.497     -29.090
  H      115.602     -29.171     -30.959
  H      117.276     -32.561     -29.207
  H      117.262     -31.548     -27.744
  H      117.678     -30.830     -29.326
  H      109.358     -31.201     -23.687
  H      111.099     -31.288     -23.809
  H      110.102     -32.352     -24.772

 3  4  5  6  7  8  9  10  11  12  23  26  30  31 0
 6-311+G(2d,p)
 ****
 33  35  36  37  38 0
 6-311+G(2d,p)
 ****
 1  2  13  14  15  16  17  18  19  20  21  22  24  25 0
 3-21G
 ****
 27  28  29  32  34  39  40  41  42  43  44  45  46  47  48  49 0
 3-21G
 ****


