%nproc=1
%NoSave
%Mem=1900MB
#P OB98/GEN NMR

erre ene a

0 1
  C     -427.013     258.841    -303.834
  O     -426.232     258.694    -305.025
  P     -424.761     258.056    -305.028
  C     -425.096     257.241    -307.454
  O     -424.246     257.919    -306.542
  C     -424.655     257.444    -308.907
  O     -424.985     258.774    -309.358
  C     -423.153     257.292    -309.144
  O     -422.765     255.932    -309.140
  C     -422.999     258.000    -310.488
  O     -423.338     257.124    -311.574
  C     -424.020     259.146    -310.369
  N     -423.400     260.424    -310.057
  C     -422.400     260.863    -310.936
  O     -422.036     260.144    -311.873
  N     -421.805     262.080    -310.703
  C     -422.132     262.767    -309.654
  N     -421.520     263.968    -309.489
  C     -423.125     262.309    -308.663
  C     -423.710     261.141    -308.928
  O     -424.641     256.798    -304.234
  O     -423.816     259.202    -304.417
  H     -423.292     257.660    -312.388
  H     -423.074     258.778    -303.943
  H     -423.346     262.899    -307.787
  H     -424.451     260.734    -308.253
  H     -424.593     259.250    -311.303
  H     -421.979     258.350    -310.660
  H     -422.604     257.858    -308.376
  H     -425.208     256.727    -309.530
  H     -420.852     264.262    -310.187
  H     -426.118     257.633    -307.333
  H     -421.703     264.593    -308.705
  H     -425.105     256.173    -307.206
  P     -421.882     255.366    -307.926
  C     -422.118     253.068    -309.053
  O     -421.241     253.980    -308.414
  O     -422.553     255.322    -306.595
  O     -420.615     256.344    -307.895
  H     -420.299     256.423    -306.975
  H     -421.525     252.379    -309.669
  H     -422.843     253.593    -309.682
  H     -422.656     252.488    -308.300
  H     -427.954     259.289    -304.077
  H     -426.490     259.465    -303.139
  H     -427.178     257.879    -303.395

 3  4  5  6  7  8  9  10  11  12  13  23  27  28  29  30  32 0
 6-311+G(2d,p)
 ****
 34  35 0
 6-311+G(2d,p)
 ****
 1  2  14  15  16  17  18  19  20  21  22  24  25  26 0
 3-21G
 ****
 31  33  36  37  38  39  40  41  42  43  44  45  46 0
 3-21G
 ****


