%nproc=1
%NoSave
%Mem=1900MB
#P OB98/GEN NMR

erre ene a

0 1
  C        0.586     184.006    -127.655
  O        1.944     183.644    -127.385
  P        3.064     184.759    -127.693
  C        3.557     186.387    -129.666
  O        2.862     185.232    -129.214
  C        3.915     186.260    -131.144
  O        5.086     185.440    -131.326
  C        2.836     185.605    -131.998
  O        1.804     186.524    -132.330
  C        3.633     185.218    -133.234
  O        3.755     186.352    -134.115
  C        5.003     184.844    -132.647
  N        8.285     181.023    -133.246
  C        8.442     182.377    -133.489
  N        9.658     182.766    -133.932
  N        7.498     183.260    -133.315
  C        6.345     182.732    -132.842
  C        6.062     181.412    -132.565
  C        7.111     180.437    -132.792
  O        7.008     179.225    -132.623
  N        4.784     181.259    -132.093
  C        4.300     182.488    -132.056
  N        5.205     183.414    -132.515
  O        4.415     183.901    -127.750
  O        3.132     185.847    -126.676
  H        2.880     186.781    -134.148
  H        5.177     184.464    -127.512
  H        9.044     180.384    -133.406
  H        3.313     182.756    -131.706
  H        5.828     185.258    -133.238
  H        3.157     184.418    -133.812
  H       10.453     182.150    -134.018
  H        2.443     184.704    -131.508
  H        9.804     183.758    -134.081
  H        4.136     187.267    -131.528
  H        4.469     186.524    -129.079
  H        2.932     187.268    -129.488
  P        0.390     186.335    -131.592
  C       -1.724     184.928    -132.130
  O       -0.353     185.151    -132.382
  O       -0.418     187.651    -132.012
  O        0.482     186.179    -130.109
  H       -1.066     187.883    -131.320
  H       -2.277     185.871    -132.078
  H       -1.843     184.379    -131.190
  H       -2.137     184.327    -132.946
  H       -0.057     183.186    -127.411
  H        0.480     184.245    -128.692
  H        0.319     184.857    -127.064

 3  4  5  6  7  8  9  10  11  12  23  26  30  31  33  0
 6-311+G(2d,p)
 ****
 35  36  37  38 0
 6-311+G(2d,p)
 ****
 1  2  13  14  15  16  17  18  19  20  21  22  24  25  27  28  29 0
 3-21G
 ****
 32  34  39  40  41  42  43  44  45  46  47  48  49 0
 3-21G
 ****


