%nproc=1
%NoSave
%Mem=1900MB
#P OB98/GEN NMR

erre ene a

0 1
  C      283.839    -305.898    -503.139
  O      283.009    -306.340    -504.204
  H      283.429    -304.975    -502.734
  H      284.850    -305.698    -503.515
  H      283.876    -306.650    -502.345
  P      283.396    -307.746    -504.882
  C      281.719    -309.098    -503.435
  O      283.078    -308.879    -503.791
  C      281.599    -310.179    -502.357
  O      282.267    -309.703    -501.143
  C      280.152    -310.543    -501.977
  O      280.108    -311.936    -501.674
  C      279.941    -309.758    -500.682
  O      278.880    -310.306    -499.896
  C      281.332    -309.883    -500.060
  N      279.729    -308.438    -495.514
  C      279.337    -309.501    -496.306
  N      278.362    -310.305    -495.814
  N      279.844    -309.751    -497.487
  C      280.833    -308.890    -497.833
  C      281.313    -307.802    -497.143
  C      280.712    -307.512    -495.857
  O      281.012    -306.582    -495.116
  N      282.292    -307.158    -497.860
  C      282.404    -307.860    -498.966
  N      281.544    -308.929    -498.999
  O      284.999    -307.693    -504.915
  O      282.815    -307.976    -506.238
  H      278.094    -310.372    -500.468
  H      285.311    -307.346    -505.783
  H      279.277    -308.289    -494.627
  H      283.112    -307.639    -499.779
  H      281.509    -310.871    -499.620
  H      279.697    -308.706    -500.905
  H      277.958    -310.189    -494.908
  H      279.408    -310.306    -502.748
  H      278.092    -311.108    -496.375
  H      282.159    -311.055    -502.700
  H      281.172    -309.426    -504.330
  H      281.286    -308.153    -503.077
  P      279.464    -312.925    -502.762
  C      281.608    -314.393    -502.882
  O      280.643    -313.617    -503.582
  O      278.823    -311.913    -503.824
  O      278.427    -313.872    -502.205
  H      278.060    -312.326    -504.263
  H      282.323    -314.783    -503.576
  H      281.119    -315.202    -502.381
  H      282.107    -313.778    -502.163

 6  7  8  9  10  11  12  13  14  15  26  29  33  34 0
 6-311+G(2d,p)
 ****
 36  38  39  40  41 0
 6-311+G(2d,p)
 ****
 1  2  3  4  5  16  17  18  19  20  21  22  23  24  25 0
 3-21G
 ****
 27  28  30  31  32  35  37  42  43  44  45  46  47 0
 3-21G
 ****
 48  49 0
 3-21G
 ****


