%nproc=1
%NoSave
%Mem=1900MB
#P OB98/GEN NMR

erre ene a

0 1
  C      -53.537     162.739    -131.018
  O      -53.900     163.299    -132.266
  H      -53.068     161.768    -131.194
  H      -54.426     162.595    -130.399
  H      -52.824     163.391    -130.507
  P      -54.588     164.749    -132.226
  C      -56.389     164.058    -133.952
  O      -55.278     164.897    -133.666
  C      -56.610     163.959    -135.459
  O      -57.159     165.185    -135.973
  C      -55.342     163.703    -136.264
  O      -54.996     162.328    -136.240
  C      -55.789     164.147    -137.648
  O      -56.570     163.105    -138.266
  C      -56.688     165.358    -137.336
  N      -57.021     170.071    -139.344
  C      -57.751     168.953    -139.551
  N      -57.579     167.726    -139.016
  C      -56.525     167.712    -138.184
  C      -55.689     168.774    -137.874
  C      -55.976     170.004    -138.488
  N      -55.235     171.145    -138.266
  N      -54.712     168.382    -136.983
  C      -54.987     167.121    -136.718
  N      -56.053     166.659    -137.448
  O      -53.709     165.870    -131.793
  O      -55.845     164.462    -131.274
  H      -57.340     162.936    -137.693
  H      -56.221     163.585    -131.461
  H      -58.586     169.058    -140.238
  H      -54.459     166.507    -135.999
  H      -57.570     165.387    -137.987
  H      -54.948     164.350    -138.312
  H      -54.520     164.344    -135.931
  H      -57.353     163.171    -135.639
  H      -57.293     164.444    -133.468
  H      -55.402     171.932    -138.872
  H      -54.385     171.061    -137.726
  H      -56.170     163.069    -133.537
  P      -53.465     161.869    -136.351
  C      -53.994     160.678    -138.567
  O      -53.450     160.544    -137.259
  O      -52.749     161.736    -135.051
  O      -52.785     162.962    -137.295
  H      -51.880     163.164    -136.986
  H      -53.932     159.739    -139.077
  H      -53.441     161.416    -139.109
  H      -55.018     160.979    -138.498

 6  7  8  9  10  11  12  13  14  15  25  28  32  33  34  35 0
 6-311+G(2d,p)
 ****
 36  39  40 0
 6-311+G(2d,p)
 ****
 1  2  3  4  5  16  17  18  19  20  21  22  23  24 0
 3-21G
 ****
 26  27  29  30  31  37  38  41  42  43  44  45  46  47 0
 3-21G
 ****
 48 0
 3-21G
 ****


