%nproc=1
%NoSave
%Mem=1900MB
#P OB98/GEN NMR

erre ene a

0 1
  C     -484.629    -302.664    -232.537
  O     -485.395    -301.701    -231.839
  H     -483.581    -302.360    -232.516
  H     -484.959    -302.717    -233.577
  H     -484.724    -303.644    -232.063
  P     -486.962    -302.002    -231.674
  C     -486.821    -302.227    -229.094
  O     -487.117    -302.865    -230.326
  C     -486.541    -303.255    -228.002
  O     -485.271    -303.914    -228.285
  C     -486.454    -302.669    -226.585
  O     -486.993    -303.627    -225.671
  C     -484.952    -302.585    -226.350
  O     -484.618    -302.536    -224.966
  C     -484.498    -303.853    -227.073
  N     -480.239    -306.471    -226.485
  C     -481.535    -306.780    -226.136
  N     -481.736    -307.979    -225.540
  N     -482.552    -305.993    -226.354
  C     -482.216    -304.844    -226.991
  C     -480.969    -304.416    -227.387
  C     -479.847    -305.292    -227.115
  O     -478.674    -305.061    -227.383
  N     -481.036    -303.178    -227.974
  C     -482.319    -302.864    -227.938
  N     -483.074    -303.842    -227.353
  O     -487.239    -303.067    -232.836
  O     -487.858    -300.813    -231.779
  H     -484.676    -303.447    -224.613
  H     -487.548    -302.613    -233.644
  H     -479.490    -307.110    -226.282
  H     -482.749    -301.941    -228.317
  H     -484.695    -304.760    -226.492
  H     -484.543    -301.686    -226.832
  H     -481.007    -308.653    -225.383
  H     -486.963    -301.708    -226.459
  H     -482.691    -308.239    -225.310
  H     -487.319    -304.033    -228.053
  H     -487.679    -301.608    -228.800
  H     -485.948    -301.577    -229.225
  P     -488.570    -303.592    -225.389
  C     -489.169    -305.795    -226.629
  O     -489.307    -304.386    -226.568
  O     -488.952    -302.066    -225.695
  O     -488.956    -303.985    -223.996
  H     -489.733    -301.807    -225.173
  H     -489.717    -306.171    -227.467
  H     -489.551    -306.230    -225.729
  H     -488.135    -306.048    -226.737

 6  7  8  9  10  11  12  13  14  15  26  29  33  34 0
 6-311+G(2d,p)
 ****
 36  38  39  40  41 0
 6-311+G(2d,p)
 ****
 1  2  3  4  5  16  17  18  19  20  21  22  23  24  25 0
 3-21G
 ****
 27  28  30  31  32  35  37  42  43  44  45  46  47 0
 3-21G
 ****
 48  49 0
 3-21G
 ****


