%nproc=1
%NoSave
%Mem=1900MB
#P OB98/GEN NMR

erre ene a

0 1
  C       22.922    -334.126     418.190
  O       23.470    -335.271     417.568
  H       23.700    -333.364     418.273
  H       22.566    -334.379     419.193
  H       22.099    -333.726     417.591
  P       22.472    -336.505     417.337
  C       20.851    -336.413     415.299
  O       22.185    -336.556     415.760
  C       20.747    -336.826     413.826
  O       21.602    -335.946     413.033
  C       21.217    -338.265     413.549
  O       20.492    -338.751     412.405
  C       22.675    -338.047     413.171
  O       23.217    -339.197     412.564
  C       22.530    -336.793     412.316
  N       27.229    -337.105     410.320
  C       26.188    -337.966     410.309
  N       24.963    -337.809     410.852
  C       24.852    -336.602     411.436
  C       25.821    -335.614     411.515
  C       27.066    -335.904     410.924
  N       28.128    -335.031     410.936
  N       25.337    -334.511     412.196
  C       24.100    -334.831     412.520
  N       23.768    -336.086     412.088
  O       21.093    -335.984     417.959
  O       22.904    -337.801     417.940
  H       23.289    -339.931     413.211
  H       21.005    -336.295     418.881
  H       26.365    -338.912     409.804
  H       23.410    -334.200     413.068
  H       22.090    -337.013     411.339
  H       23.280    -337.844     414.061
  H       21.064    -338.940     414.391
  H       19.719    -336.665     413.480
  H       20.554    -335.365     415.413
  H       20.187    -337.039     415.900
  H       28.989    -335.319     410.505
  H       28.027    -334.140     411.400
  P       19.576    -340.064     412.561
  C       17.344    -340.619     413.816
  O       18.174    -339.634     413.214
  O       20.287    -340.824     413.779
  O       19.497    -340.946     411.359
  H       20.134    -341.786     413.698
  H       16.458    -340.155     414.195
  H       17.873    -341.088     414.619
  H       17.077    -341.355     413.086

 6  7  8  9  10  11  12  13  14  15  25  28  32  33  34  35 0
 6-311+G(2d,p)
 ****
 36  37  40 0
 6-311+G(2d,p)
 ****
 1  2  3  4  5  16  17  18  19  20  21  22  23  24 0
 3-21G
 ****
 26  27  29  30  31  38  39 41  42  43  44  45  46  47  48 0
 3-21G
 ****


