%nproc=1
%NoSave
%Mem=1900MB
#P OB98/GEN NMR

erre ene a

0 1
  C     -154.987    -232.442     198.678
  O     -155.106    -233.368     199.773
  P     -154.674    -232.891     201.247
  C     -152.414    -232.241     202.399
  O     -153.072    -232.948     201.358
  C     -151.117    -232.959     202.787
  O     -151.411    -234.173     203.518
  C     -150.267    -233.398     201.606
  O     -149.554    -232.319     201.029
  C     -149.364    -234.444     202.259
  O     -148.249    -233.817     202.915
  C     -150.315    -235.088     203.286
  N     -150.791    -236.403     202.869
  C     -149.880    -237.446     202.945
  O     -148.709    -237.298     203.295
  N     -150.354    -238.679     202.584
  C     -151.599    -238.951     202.091
  O     -151.956    -240.073     201.763
  C     -152.492    -237.790     201.951
  C     -152.053    -236.591     202.339
  O     -155.111    -234.147     202.145
  O     -155.320    -231.638     201.738
  H     -147.821    -233.240     202.250
  H     -155.318    -233.845     203.049
  H     -149.719    -239.461     202.662
  H     -153.481    -237.957     201.542
  H     -152.702    -235.723     202.240
  H     -149.806    -235.194     204.253
  H     -148.950    -235.154     201.533
  H     -150.897    -233.897     200.854
  H     -150.544    -232.295     203.449
  H     -153.070    -232.188     203.270
  H     -152.203    -231.220     202.058
  P     -150.079    -231.782     199.609
  C     -149.096    -232.108     197.208
  O     -149.256    -232.616     198.512
  O     -149.437    -230.309     199.584
  O     -151.568    -231.817     199.482
  H     -148.575    -230.281     200.035
  H     -149.027    -231.016     197.206
  H     -149.946    -232.424     196.589
  H     -148.174    -232.515     196.781
  H     -155.313    -232.914     197.775
  H     -153.965    -232.142     198.574
  H     -155.594    -231.582     198.871

 3  4  5  6  7  8  9  10  11  12  13  23  28  29  30  31  32 0
 6-311+G(2d,p)
 ****
 33  34 0
 6-311+G(2d,p)
 ****
 1  2  14  15  16  17  18  19  20  21  22  24  25  26 0
 3-21G
 ****
 27  35  36  37  38  39  40  41  42  43  44  45 0
 3-21G
 ****


