%nproc=1
%NoSave
%Mem=1900MB
#P OB98/GEN NMR

erre ene a

0 1
  C     -671.927     192.883     291.484
  O     -671.211     193.184     290.296
  P     -670.239     194.459     290.294
  C     -668.289     192.931     291.082
  O     -669.028     194.130     291.299
  C     -666.895     193.240     290.541
  O     -666.223     194.159     291.449
  C     -665.988     192.007     290.380
  O     -665.145     192.244     289.257
  C     -665.148     192.047     291.650
  O     -663.938     191.302     291.522
  C     -664.962     193.544     291.815
  N     -661.133     194.185     295.153
  C     -661.140     193.836     293.850
  N     -662.201     193.697     293.025
  C     -663.350     193.943     293.680
  C     -663.497     194.272     295.016
  C     -662.322     194.401     295.773
  N     -662.317     194.764     297.104
  N     -664.843     194.426     295.340
  C     -665.480     194.186     294.209
  N     -664.615     193.919     293.182
  O     -671.099     195.552     291.088
  O     -669.835     194.955     288.952
  H     -663.449     191.372     292.355
  H     -671.373     196.269     290.475
  H     -660.165     193.653     293.398
  H     -666.552     194.210     294.084
  H     -664.195     193.953     291.157
  H     -665.719     191.623     292.491
  H     -666.528     191.066     290.256
  H     -666.996     193.756     289.580
  H     -668.823     192.326     290.346
  H     -661.421     194.969     297.530
  H     -663.168     195.116     297.520
  H     -668.223     192.363     292.016
  P     -664.638     190.960     288.438
  C     -666.151     191.879     286.541
  O     -665.687     190.739     287.240
  O     -664.944     189.738     289.443
  O     -663.195     191.006     288.040
  H     -664.320     189.006     289.270
  H     -666.335     191.590     285.491
  H     -665.426     192.702     286.565
  H     -667.093     192.210     286.977
  H     -672.527     192.011     291.328
  H     -672.558     193.709     291.739
  H     -671.236     192.702     292.281

 3  4  5  6  7  8  9  10  11  12  22  25  29  30  31  32 0
 6-311+G(2d,p)
 ****
 33  36  37 0
 6-311+G(2d,p)
 ****
 1  2  13  14  15  16  17  18  19  20  21  23  24  26 0
 3-21G
 ****
 27  28  34  35  38  39  40  41  42  43  44  45  46  47  48 0
 3-21G
 ****


