%nproc=1
%NoSave
%Mem=1900MB
#P OB98/GEN NMR

erre ene a

0 1
  C      -21.774     720.132    -651.356
  O      -20.817     719.776    -652.341
  H      -22.636     720.582    -651.859
  H      -21.349     720.869    -650.674
  H      -22.108     719.250    -650.804
  P      -19.543     718.920    -651.904
  C      -19.640     717.570    -654.111
  O      -18.844     718.391    -653.246
  C      -19.099     717.641    -655.541
  O      -19.271     718.961    -656.083
  C      -17.603     717.340    -655.644
  O      -17.350     715.950    -655.522
  C      -17.297     717.933    -657.016
  O      -17.689     717.033    -658.062
  C      -18.196     719.192    -657.018
  N      -17.465     720.416    -656.682
  C      -16.826     721.074    -657.736
  O      -16.834     720.639    -658.897
  N      -16.177     722.235    -657.415
  C      -16.025     722.749    -656.161
  O      -15.378     723.763    -655.919
  C      -16.691     722.005    -655.074
  C      -17.372     720.886    -655.382
  O      -19.786     717.855    -650.871
  O      -18.499     720.019    -651.373
  H      -17.799     717.569    -658.872
  H      -18.523     720.047    -650.401
  H      -15.696     722.708    -658.163
  H      -16.587     722.378    -654.055
  H      -17.867     720.322    -654.595
  H      -18.672     719.328    -658.003
  H      -16.239     718.144    -657.162
  H      -17.043     717.912    -654.892
  H      -19.677     716.934    -656.154
  H      -20.672     717.933    -654.090
  H      -19.624     716.542    -653.728
  P      -15.889     715.424    -655.126
  C      -17.049     713.206    -654.542
  O      -15.935     713.809    -655.181
  O      -15.324     715.978    -653.863
  O      -14.987     715.806    -656.386
  H      -14.405     716.567    -656.159
  H      -16.982     712.142    -654.637
  H      -17.952     713.549    -655.002
  H      -17.053     713.472    -653.506

 6  7  8  9  10  11  12  13  14  15  16  26  31  32  33  34  35 0
 6-311+G(2d,p)
 ****
 36  37 0
 6-311+G(2d,p)
 ****
 1  2  3  4  5  17  18  19  20  21  22  23  24  25 0
 3-21G
 ****
 27  28  29  30  38  39  40  41  42  43  44  45 0
 3-21G
 ****


