%nproc=1
%NoSave
%Mem=1900MB
#P OB98/GEN NMR

erre ene a

0 1
  C      -18.734      43.730     303.366
  O      -19.948      44.129     302.723
  P      -21.252      43.236     303.029
  C      -23.058      43.105     301.159
  O      -22.471      43.872     302.202
  C      -24.461      43.614     300.837
  O      -25.257      43.729     302.029
  C      -24.491      44.999     300.205
  O      -24.195      44.952     298.818
  C      -25.945      45.393     300.432
  O      -26.774      44.819     299.406
  C      -26.253      44.753     301.794
  N      -28.523      48.725     303.978
  C      -28.870      48.023     302.841
  N      -29.998      48.418     302.211
  N      -28.175      47.024     302.364
  C      -27.089      46.719     303.114
  C      -26.640      47.340     304.256
  C      -27.401      48.466     304.755
  O      -27.121      49.143     305.738
  N      -25.505      46.743     304.739
  C      -25.283      45.744     303.909
  N      -26.209      45.697     302.895
  O      -21.596      43.616     304.546
  O      -21.038      41.771     302.853
  H      -26.598      45.318     298.584
  H      -22.068      42.878     304.976
  H      -29.089      49.491     304.295
  H      -24.473      45.029     303.997
  H      -27.232      44.262     301.802
  H      -26.100      46.477     300.395
  H      -30.618      49.131     302.563
  H      -23.831      45.692     300.743
  H      -30.288      47.891     301.396
  H      -24.940      42.888     300.166
  H      -23.113      42.056     301.457
  H      -22.411      43.152     300.277
  P      -22.647      44.868     298.402
  C      -22.502      46.694     296.565
  O      -22.591      45.314     296.866
  O      -22.367      43.294     298.360
  O      -21.718      45.576     299.330
  H      -21.430      43.110     298.562
  H      -21.788      47.198     297.221
  H      -23.488      47.156     296.669
  H      -22.167      46.807     295.531
  H      -17.946      44.397     303.085
  H      -18.482      42.734     303.066
  H      -18.866      43.761     304.427

 3  4  5  6  7  8  9  10  11  12  23  26  30  31  33  0
 6-311+G(2d,p)
 ****
 35  36  37  38 0
 6-311+G(2d,p)
 ****
 1  2  13  14  15  16  17  18  19  20  21  22  24  25  27  28  29 0
 3-21G
 ****
 32  34  39  40  41  42  43  44  45  46  47  48  49 0
 3-21G
 ****


