%nproc=1
%NoSave
%Mem=1900MB
#P OB98/GEN NMR

erre ene a

0 1
  C      395.953      39.604      90.816
  O      395.113      38.892      89.891
  P      395.056      39.213      88.319
  C      392.649      40.117      88.652
  O      393.936      40.339      88.081
  C      391.590      40.984      87.969
  O      391.938      42.382      88.078
  C      391.436      40.756      86.471
  O      390.774      39.539      86.171
  C      390.661      42.011      86.060
  O      389.252      41.846      86.262
  C      391.213      43.071      87.030
  N      392.061      44.060      86.376
  C      392.214      45.284      87.040
  O      391.592      45.513      88.073
  N      393.062      46.214      86.498
  C      393.620      45.990      85.347
  N      394.463      46.947      84.865
  C      393.375      44.774      84.555
  C      392.593      43.858      85.125
  O      394.882      38.003      87.462
  O      396.434      39.964      87.993
  H      396.666      39.821      87.054
  H      389.109      41.777      87.229
  H      393.823      44.648      83.578
  H      392.371      42.927      84.616
  H      390.388      43.582      87.543
  H      390.806      42.256      85.001
  H      392.425      40.770      85.998
  H      390.632      40.817      88.481
  H      394.619      47.767      85.442
  H      392.692      40.381      89.717
  H      394.965      46.866      83.993
  H      392.399      39.053      88.572
  P      391.698      38.237      85.977
  C      392.628      38.891      83.642
  O      392.908      38.643      85.010
  O      390.789      37.270      85.080
  O      392.108      37.578      87.249
  H      390.905      36.344      85.377
  H      393.375      39.586      83.251
  H      391.634      39.329      83.503
  H      392.692      37.954      83.087
  H      395.815      39.209      91.801
  H      395.692      40.642      90.809
  H      396.977      39.492      90.527

 3  4  5  6  7  8  9  10  11  12  13  24  27  28  29  30  32 0
 6-311+G(2d,p)
 ****
 34  35 0
 6-311+G(2d,p)
 ****
 1  2  14  15  16  17  18  19  20  21  22  23  25  26 0
 3-21G
 ****
 31  33  36  37  38  39  40  41  42  43  44  45  46 0
 3-21G
 ****


