%nproc=1
%NoSave
%Mem=1900MB
#P OB98/GEN NMR

erre ene a

0 1
  C      -24.370     -21.617       1.146
  O      -24.499     -22.699       0.251
  H      -23.465     -21.762       1.741
  H      -25.232     -21.591       1.817
  H      -24.290     -20.665       0.614
  P      -25.447     -22.533      -1.026
  C      -27.501     -24.096      -1.001
  O      -26.955     -22.854      -0.575
  C      -26.890     -25.272      -0.238
  O      -26.894     -24.988       1.177
  C      -27.679     -26.570      -0.430
  O      -27.304     -27.323      -1.571
  C      -27.359     -27.327       0.856
  O      -26.161     -28.109       0.717
  C      -27.154     -26.209       1.884
  N      -29.883     -28.076       5.783
  C      -28.874     -28.686       5.061
  N      -28.588     -29.960       5.404
  N      -28.227     -28.096       4.090
  C      -28.691     -26.860       3.799
  C      -29.697     -26.162       4.429
  C      -30.357     -26.793       5.551
  O      -31.245     -26.291       6.232
  N      -29.920     -24.946       3.829
  C      -29.110     -24.951       2.789
  N      -28.290     -26.054       2.774
  O      -25.080     -23.806      -1.930
  O      -25.266     -21.264      -1.803
  H      -26.125     -28.741       1.460
  H      -25.188     -23.580      -2.872
  H      -30.324     -28.569       6.538
  H      -29.046     -24.165       2.045
  H      -26.279     -26.403       2.516
  H      -28.162     -28.024       1.107
  H      -29.111     -30.489       6.082
  H      -28.755     -26.370      -0.449
  H      -27.990     -30.504       4.779
  H      -25.842     -25.392      -0.538
  H      -27.278     -24.185      -2.065
  H      -28.589     -24.092      -0.891
  P      -28.325     -28.347      -2.251
  C      -27.687     -30.891      -2.142
  O      -28.209     -29.749      -1.499
  O      -27.655     -28.634      -3.675
  O      -29.731     -27.861      -2.382
  H      -28.075     -28.091      -4.368
  H      -27.698     -31.719      -1.464
  H      -26.681     -30.697      -2.452
  H      -28.285     -31.123      -2.998

 6  7  8  9  10  11  12  13  14  15  26  29  33  34 0
 6-311+G(2d,p)
 ****
 36  38  39  40  41 0
 6-311+G(2d,p)
 ****
 1  2  3  4  5  16  17  18  19  20  21  22  23  24  25 0
 3-21G
 ****
 27  28  30  31  32  35  37  42  43  44  45  46  47 0
 3-21G
 ****
 48  49 0
 3-21G
 ****


