%nproc=1
%NoSave
%Mem=1900MB
#P OB98/GEN NMR

erre ene a

0 1
  C     -899.384    1284.539     552.211
  O     -898.714    1283.559     552.998
  P     -897.744    1284.107     554.161
  C     -895.454    1283.169     553.348
  O     -896.514    1283.060     554.272
  C     -894.634    1281.886     553.345
  O     -894.014    1281.690     554.609
  C     -895.434    1280.615     553.075
  O     -895.794    1280.494     551.710
  C     -894.464    1279.562     553.595
  O     -893.444    1279.309     552.597
  C     -893.854    1280.266     554.828
  N     -894.974    1276.341     557.927
  C     -894.344    1276.400     556.734
  N     -894.094    1277.477     555.935
  C     -894.564    1278.569     556.527
  C     -895.244    1278.693     557.745
  C     -895.454    1277.517     558.443
  N     -896.064    1277.452     559.674
  N     -895.594    1280.002     557.987
  C     -895.144    1280.674     556.952
  N     -894.504    1279.871     556.066
  O     -898.594    1283.826     555.487
  O     -897.324    1285.547     554.042
  H     -893.904    1278.972     551.794
  H     -898.424    1284.516     556.165
  H     -893.984    1275.438     556.342
  H     -895.224    1281.759     556.836
  H     -892.784    1280.057     554.913
  H     -894.964    1278.593     553.803
  H     -896.364    1280.606     553.697
  H     -893.834    1281.988     552.554
  H     -894.804    1284.026     553.618
  H     -896.304    1276.541     560.057
  H     -896.534    1278.292     560.005
  H     -895.864    1283.392     552.340
  P     -897.294    1280.107     551.363
  C     -896.574    1277.674     550.971
  O     -897.164    1278.825     550.405
  O     -897.724    1281.284     550.350
  O     -898.184    1279.916     552.569
  H     -897.054    1281.391     549.646
  H     -896.564    1276.870     550.219
  H     -897.134    1277.347     551.853
  H     -895.514    1277.871     551.235
  H     -899.993    1284.052     551.478
  H     -898.661    1285.157     551.720
  H     -900.000    1285.144     552.843

 3  4  5  6  7  8  9  10  11  12  22  25  29  30  31  32 0
 6-311+G(2d,p)
 ****
 33  36  37 0
 6-311+G(2d,p)
 ****
 1  2  13  14  15  16  17  18  19  20  21  23  24  26 0
 3-21G
 ****
 27  28  34  35  38  39  40  41  42  43  44  45  46  47  48 0
 3-21G
 ****


