%nproc=1
%NoSave
%Mem=1900MB
#P OB98/GEN NMR

erre ene a

0 1
  C     -198.692     -80.801    -487.949
  O     -198.557     -79.891    -486.872
  P     -197.350     -80.124    -485.845
  C     -195.419     -79.158    -487.308
  O     -196.014     -80.302    -486.713
  C     -193.926     -79.122    -486.975
  O     -193.730     -78.741    -485.593
  C     -193.234     -80.467    -487.131
  O     -192.945     -80.748    -488.491
  C     -191.986     -80.274    -486.275
  O     -190.957     -79.593    -487.013
  C     -192.519     -79.382    -485.134
  N     -192.739     -80.124    -483.899
  C     -191.924     -79.772    -482.824
  O     -191.052     -78.906    -482.903
  N     -192.119     -80.477    -481.670
  C     -192.987     -81.515    -481.497
  O     -193.076     -82.149    -480.454
  C     -193.801     -81.863    -482.674
  C     -193.638     -81.169    -483.801
  O     -197.623     -81.589    -485.260
  O     -197.249     -79.105    -484.761
  H     -190.338     -79.226    -486.352
  H     -197.356     -81.626    -484.320
  H     -191.556     -80.222    -480.872
  H     -194.500     -82.684    -482.576
  H     -194.218     -81.418    -484.684
  H     -191.811     -78.572    -484.927
  H     -191.565     -81.224    -485.940
  H     -193.850     -81.260    -486.689
  H     -193.447     -78.364    -487.609
  H     -195.905     -78.256    -486.927
  H     -195.570     -79.198    -488.392
  P     -192.841     -82.297    -488.907
  C     -195.439     -82.562    -488.815
  O     -194.177     -82.971    -488.335
  O     -191.672     -82.787    -487.932
  O     -192.566     -82.492    -490.361
  H     -191.676     -82.314    -487.084
  H     -195.400     -82.309    -489.879
  H     -195.777     -81.691    -488.247
  H     -196.153     -83.379    -488.671
  H     -199.534     -80.523    -488.547
  H     -198.838     -81.789    -487.565
  H     -197.806     -80.778    -488.548

 3  4  5  6  7  8  9  10  11  12  13  23  28  29  30  31  32 0
 6-311+G(2d,p)
 ****
 33  34 0
 6-311+G(2d,p)
 ****
 1  2  14  15  16  17  18  19  20  21  22  24  25  26 0
 3-21G
 ****
 27  35  36  37  38  39  40  41  42  43  44  45 0
 3-21G
 ****


