%nproc=1
%NoSave
%Mem=1900MB
#P OB98/GEN NMR

erre ene a

0 1
  C      170.938    -121.764     -16.191
  O      169.999    -121.283     -17.133
  H      171.041    -121.043     -15.376
  H      170.569    -122.708     -15.780
  H      171.911    -121.938     -16.662
  P      170.464    -120.073     -18.081
  C      169.018    -118.944     -19.923
  O      169.119    -119.331     -18.559
  C      167.591    -119.144     -20.436
  O      167.322    -120.577     -20.492
  C      166.506    -118.498     -19.557
  O      165.491    -117.961     -20.415
  C      165.930    -119.684     -18.791
  O      164.590    -119.457     -18.367
  C      166.071    -120.800     -19.816
  N      163.703    -125.303     -19.753
  C      163.712    -124.305     -20.660
  N      164.417    -123.153     -20.623
  C      165.225    -123.119     -19.544
  C      165.331    -124.072     -18.539
  C      164.500    -125.201     -18.663
  N      164.434    -126.193     -17.710
  N      166.225    -123.648     -17.575
  C      166.632    -122.460     -17.977
  N      166.052    -122.101     -19.163
  O      170.956    -120.842     -19.402
  O      171.523    -119.187     -17.521
  H      164.574    -118.678     -17.778
  H      171.896    -121.084     -19.305
  H      163.063    -124.434     -21.519
  H      167.314    -121.812     -17.440
  H      165.271    -120.796     -20.566
  H      166.544    -119.875     -17.903
  H      166.883    -117.714     -18.896
  H      167.536    -118.768     -21.464
  H      169.703    -119.558     -20.517
  H      163.736    -126.916     -17.831
  H      164.937    -126.078     -16.845
  H      169.311    -117.894     -20.026
  P      165.594    -116.407     -20.793
  C      164.960    -114.971     -22.881
  O      164.711    -116.141     -22.107
  O      167.097    -116.254     -21.323
  O      165.310    -115.486     -19.649
  H      167.441    -115.370     -21.103
  H      164.290    -114.946     -23.715
  H      165.970    -114.986     -23.235
  H      164.807    -114.103     -22.275

 6  7  8  9  10  11  12  13  14  15  25  28  32  33  34  35 0
 6-311+G(2d,p)
 ****
 36  39  40 0
 6-311+G(2d,p)
 ****
 1  2  3  4  5  16  17  18  19  20  21  22  23  24 0
 3-21G
 ****
 26  27  29  30  31  37  38  41  42  43  44  45  46  47 0
 3-21G
 ****
 48 0
 3-21G
 ****


