%nproc=1
%NoSave
%Mem=1900MB
#P OB98/GEN NMR

erre ene a

0 1
  C     -223.788      89.871       3.638
  O     -223.850      88.670       2.894
  H     -222.833      90.361       3.438
  H     -223.859      89.652       4.707
  H     -224.600      90.542       3.343
  P     -225.203      87.819       3.022
  C     -224.032      86.168       4.667
  O     -225.113      87.060       4.433
  C     -224.086      85.638       6.105
  O     -223.993      86.771       7.020
  C     -225.390      84.897       6.441
  O     -225.103      83.896       7.434
  C     -226.222      86.001       7.068
  O     -227.305      85.457       7.786
  C     -225.143      86.702       7.887
  N     -226.920      89.415      11.823
  C     -226.548      88.122      11.713
  N     -226.073      87.474      10.628
  C     -225.977      88.315       9.584
  C     -226.321      89.656       9.541
  C     -226.820      90.210      10.730
  N     -227.227      91.519      10.842
  N     -226.102      90.171       8.277
  C     -225.628      89.162       7.574
  N     -225.533      88.023       8.323
  O     -225.001      86.648       1.948
  O     -226.467      88.576       2.796
  H     -227.923      86.159       8.075
  H     -225.392      86.911       1.094
  H     -226.641      87.526      12.617
  H     -225.350      89.195       6.529
  H     -224.861      86.132       8.780
  H     -226.635      86.667       6.305
  H     -225.859      84.427       5.572
  H     -223.208      85.010       6.289
  H     -223.095      86.705       4.500
  H     -224.098      85.327       3.967
  H     -227.599      91.833      11.724
  H     -227.191      92.118      10.028
  P     -225.358      82.350       7.080
  C     -227.950      82.125       7.289
  O     -226.814      82.154       6.438
  O     -225.540      81.702       8.538
  O     -224.246      81.669       6.353
  H     -225.021      80.879       8.600
  H     -228.833      81.988       6.701
  H     -228.018      83.049       7.825
  H     -227.855      81.316       7.983

 6  7  8  9  10  11  12  13  14  15  25  28  32  33  34  35 0
 6-311+G(2d,p)
 ****
 36  37  40 0
 6-311+G(2d,p)
 ****
 1  2  3  4  5  16  17  18  19  20  21  22  23  24 0
 3-21G
 ****
 26  27  29  30  31  38  39 41  42  43  44  45  46  47  48 0
 3-21G
 ****


