%nproc=1
%NoSave
%Mem=1900MB
#P OB98/GEN NMR

erre ene a

0 1
  C     -284.896     315.846     500.628
  O     -285.316     315.001     499.571
  P     -284.301     313.953     498.899
  C     -282.877     315.800     497.675
  O     -283.684     314.633     497.599
  C     -282.273     316.083     496.294
  O     -281.431     314.981     495.881
  C     -283.360     316.261     495.241
  O     -283.673     317.642     495.065
  C     -282.740     315.632     494.007
  O     -281.833     316.548     493.371
  C     -281.952     314.456     494.622
  N     -282.685     313.204     494.926
  C     -283.422     312.578     493.923
  O     -283.499     313.001     492.777
  N     -284.123     311.462     494.307
  C     -284.101     310.902     495.552
  O     -284.899     310.064     495.951
  C     -283.096     311.436     496.474
  C     -282.460     312.558     496.136
  O     -285.289     312.846     498.302
  O     -283.278     313.375     499.819
  H     -281.349     316.050     492.673
  H     -285.336     312.071     498.902
  H     -284.771     311.093     493.631
  H     -282.940     310.931     497.428
  H     -281.734     312.999     496.821
  H     -281.090     314.180     494.005
  H     -283.501     315.386     493.268
  H     -284.262     315.694     495.502
  H     -281.645     316.983     496.360
  H     -282.088     315.651     498.416
  H     -283.486     316.644     498.008
  P     -284.731     318.347     496.040
  C     -286.435     318.130     494.135
  O     -285.816     319.004     495.057
  O     -284.147     319.262     497.064
  O     -285.496     317.105     496.699
  H     -285.120     316.917     497.591
  H     -287.268     318.655     493.664
  H     -286.815     317.235     494.635
  H     -285.716     317.849     493.358
  H     -285.712     316.466     500.935
  H     -284.088     316.462     500.293
  H     -284.571     315.249     501.454

 3  4  5  6  7  8  9  10  11  12  13  23  28  29  30  31  32 0
 6-311+G(2d,p)
 ****
 33  34 0
 6-311+G(2d,p)
 ****
 1  2  14  15  16  17  18  19  20  21  22  24  25  26  27 0
 3-21G
 ****
 35  36  37  38  39  40  41  42  43  44  45 0
 3-21G
 ****


