%nproc=1
%NoSave
%Mem=1900MB
#P OB98/GEN NMR

erre ene a

0 1
  C      -55.892     514.021     181.995
  O      -55.271     513.675     183.226
  P      -55.093     514.840     184.319
  C      -52.536     514.413     184.435
  O      -53.580     515.346     184.172
  C      -51.170     515.053     184.198
  O      -51.029     515.387     182.811
  C      -50.935     516.356     184.955
  O      -50.564     516.129     186.300
  C      -49.799     516.956     184.151
  O      -48.551     516.376     184.583
  C      -50.128     516.521     182.715
  N      -49.472     520.923     180.301
  C      -48.566     520.152     181.000
  N      -47.292     520.597     181.033
  N      -48.874     519.030     181.607
  C      -50.174     518.685     181.456
  C      -51.168     519.368     180.789
  C      -50.822     520.622     180.161
  O      -51.606     521.377     179.589
  N      -52.359     518.687     180.845
  C      -52.076     517.576     181.500
  N      -50.770     517.547     181.913
  O      -55.073     514.035     185.707
  O      -56.146     515.891     184.303
  H      -48.399     516.674     185.499
  H      -55.367     514.617     186.433
  H      -49.176     521.759     179.842
  H      -52.777     516.777     181.696
  H      -49.228     516.170     182.190
  H      -49.706     518.041     184.285
  H      -46.966     521.390     180.478
  H      -51.820     517.009     184.883
  H      -46.607     520.026     181.504
  H      -50.402     514.319     184.455
  H      -52.642     513.547     183.783
  H      -52.624     514.083     185.478
  P      -50.739     517.370     187.312
  C      -48.215     517.602     187.878
  O      -49.350     518.168     187.251
  O      -50.720     516.672     188.749
  O      -51.973     518.174     187.090
  H      -51.211     517.218     189.398
  H      -48.198     516.510     187.784
  H      -48.211     517.878     188.939
  H      -47.313     518.006     187.409
  H      -55.945     513.156     181.367
  H      -55.318     514.782     181.508
  H      -56.880     514.385     182.184

 3  4  5  6  7  8  9  10  11  12  23  26  30  31  33  0
 6-311+G(2d,p)
 ****
 35  36  37  38 0
 6-311+G(2d,p)
 ****
 1  2  13  14  15  16  17  18  19  20  21  22  24  25  27  28  29 0
 3-21G
 ****
 32  34  39  40  41  42  43  44  45  46  47  48  49 0
 3-21G
 ****


