%nproc=1
%NoSave
%Mem=1900MB
#P OB98/GEN NMR

erre ene a

0 1
  C       36.452     128.220     -57.405
  O       35.953     128.046     -56.088
  P       35.161     126.688     -55.763
  C       32.571     126.802     -55.525
  O       33.694     126.858     -56.394
  C       32.252     128.195     -54.987
  O       31.988     129.111     -56.069
  C       31.013     128.254     -54.100
  O       31.283     127.839     -52.770
  C       30.695     129.738     -54.140
  O       31.551     130.450     -53.225
  C       31.043     130.104     -55.591
  N       28.087     133.019     -58.480
  C       29.305     133.305     -57.895
  N       29.771     134.560     -58.055
  N       30.007     132.433     -57.216
  C       29.410     131.218     -57.131
  C       28.207     130.814     -57.669
  C       27.436     131.794     -58.406
  O       26.328     131.620     -58.903
  N       27.940     129.505     -57.379
  C       28.977     129.108     -56.668
  N       29.873     130.123     -56.453
  O       34.894     126.786     -54.188
  O       35.884     125.440     -56.135
  H       32.470     130.213     -53.460
  H       34.663     125.906     -53.834
  H       27.581     133.730     -58.988
  H       29.112     128.106     -56.275
  H       31.533     131.080     -55.658
  H       29.663     129.962     -53.848
  H       29.252     135.296     -58.513
  H       30.182     127.690     -54.540
  H       30.633     134.815     -57.586
  H       33.135     128.560     -54.442
  H       32.792     126.131     -54.692
  H       31.711     126.402     -56.073
  P       30.017     127.413     -51.876
  C       29.270     129.284     -50.237
  O       29.242     128.777     -51.558
  O       30.683     127.010     -50.478
  O       29.198     126.307     -52.456
  H       30.122     126.367     -50.004
  H       28.933     130.325     -50.255
  H       30.282     129.253     -49.823
  H       28.592     128.705     -49.601
  H       36.953     129.163     -57.475
  H       35.639     128.196     -58.100
  H       37.140     127.433     -57.633

 3  4  5  6  7  8  9  10  11  12  23  26  30  31 0
 6-311+G(2d,p)
 ****
 33  35  36  37  38 0
 6-311+G(2d,p)
 ****
 1  2  13  14  15  16  17  18  19  20  21  22  24  25 0
 3-21G
 ****
 27  28  29  32  34  39  40  41  42  43  44  45  46  47  48  49 0
 3-21G
 ****


