%nproc=1
%NoSave
%Mem=1900MB
#P OB98/GEN NMR

erre ene a

0 1
  C      363.091     262.456     343.721
  O      362.985     261.757     342.492
  P      363.343     260.187     342.486
  C      365.817     260.906     342.157
  O      364.894     260.099     342.888
  C      367.201     260.858     342.810
  O      367.187     261.583     344.054
  C      367.687     259.456     343.153
  O      368.243     258.791     342.031
  C      368.764     259.767     344.179
  O      369.969     260.189     343.514
  C      368.142     260.943     344.949
  N      368.632     260.394     350.011
  C      369.514     260.756     349.061
  N      369.306     260.873     347.727
  C      368.050     260.524     347.406
  C      367.049     260.103     348.276
  C      367.375     260.048     349.638
  N      366.467     259.706     350.616
  N      365.891     259.831     347.568
  C      366.179     260.100     346.325
  N      367.469     260.533     346.166
  O      363.336     259.814     340.926
  O      362.407     259.327     343.273
  H      370.316     259.409     343.034
  H      363.182     258.861     340.816
  H      370.520     260.997     349.405
  H      365.488     260.005     345.488
  H      368.888     261.704     345.220
  H      369.030     258.909     344.805
  H      366.891     258.859     343.632
  H      367.912     261.354     342.133
  H      365.469     261.944     342.150
  H      366.724     259.876     351.577
  H      365.487     259.652     350.356
  H      365.871     260.543     341.124
  P      367.715     257.292     341.741
  C      369.991     256.215     342.358
  O      368.612     256.337     342.651
  O      368.230     257.020     340.248
  O      366.237     257.143     341.875
  H      367.666     256.355     339.814
  H      370.508     255.788     343.223
  H      370.442     257.179     342.124
  H      370.128     255.531     341.505
  H      362.824     263.481     343.572
  H      364.098     262.398     344.079
  H      362.431     262.016     344.439

 3  4  5  6  7  8  9  10  11  12  22  25  29  30  31  32 0
 6-311+G(2d,p)
 ****
 33  36  37 0
 6-311+G(2d,p)
 ****
 1  2  13  14  15  16  17  18  19  20  21  23  24  26 0
 3-21G
 ****
 27  28  34  35  38  39  40  41  42  43  44  45  46  47  48 0
 3-21G
 ****


