%nproc=1
%NoSave
%Mem=1900MB
#P OB98/GEN NMR

erre ene a

0 1
  C       24.275     173.035     307.963
  O       23.334     173.007     309.017
  H       25.034     172.272     308.152
  H       24.764     174.011     307.923
  H       23.795     172.819     307.005
  P       22.001     173.888     308.886
  C       20.692     171.771     308.206
  O       21.030     173.113     307.873
  C       19.220     171.513     307.893
  O       18.889     170.134     308.161
  C       18.252     172.343     308.730
  O       18.199     173.678     308.268
  C       16.968     171.547     308.543
  O       16.353     171.858     307.284
  C       17.502     170.093     308.554
  N       17.343     169.432     309.850
  C       16.382     168.424     309.917
  O       15.666     168.116     308.965
  N       16.264     167.795     311.127
  C       16.932     168.124     312.271
  O       16.748     167.562     313.348
  C       17.908     169.216     312.149
  C       18.066     169.809     310.965
  O       22.205     175.335     308.575
  O       21.277     173.687     310.301
  H       16.277     172.831     307.242
  H       21.446     174.461     310.869
  H       15.565     167.073     311.198
  H       18.453     169.509     313.036
  H       18.778     170.623     310.853
  H       16.977     169.492     307.798
  H       16.227     171.757     309.315
  H       18.538     172.304     309.788
  H       19.063     171.696     306.822
  H       20.869     171.621     309.276
  H       21.335     171.093     307.638
  P       17.278     174.760     309.002
  C       19.092     175.249     310.739
  O       17.748     174.837     310.535
  O       15.807     174.581     308.810
  O       17.769     176.158     308.402
  H       17.103     176.504     307.770
  H       19.304     175.267     311.788
  H       19.231     176.228     310.330
  H       19.753     174.562     310.253

 6  7  8  9  10  11  12  13  14  15  16  26  31  32  33  34  35 0
 6-311+G(2d,p)
 ****
 36  37 0
 6-311+G(2d,p)
 ****
 1  2  3  4  5  17  18  19  20  21  22  23  24  25 0
 3-21G
 ****
 27  28  29  30  38  39  40  41  42  43  44  45 0
 3-21G
 ****


