%nproc=1
%NoSave
%Mem=1900MB
#P OB98/GEN NMR

erre ene a

0 1
  C     -158.110     -83.916    -587.679
  O     -156.911     -84.197    -588.357
  P     -155.632     -84.860    -587.667
  C     -153.977     -83.329    -588.997
  O     -154.369     -84.650    -588.632
  C     -152.639     -83.339    -589.752
  O     -151.593     -83.742    -588.827
  C     -152.637     -84.376    -590.901
  O     -152.021     -83.909    -592.088
  C     -152.048     -85.613    -590.241
  O     -151.533     -86.560    -591.167
  C     -151.041     -84.999    -589.271
  N     -148.822     -89.230    -587.518
  C     -148.703     -88.631    -588.759
  N     -148.058     -89.357    -589.705
  N     -149.204     -87.460    -589.044
  C     -149.923     -86.915    -588.038
  C     -150.114     -87.409    -586.767
  C     -149.523     -88.690    -586.454
  O     -149.702     -89.309    -585.402
  N     -150.953     -86.612    -586.025
  C     -151.302     -85.658    -586.865
  N     -150.726     -85.814    -588.107
  O     -155.830     -86.209    -587.043
  O     -155.328     -83.817    -586.471
  H     -151.142     -87.294    -590.649
  H     -154.978     -84.332    -585.717
  H     -148.485     -90.176    -587.382
  H     -151.991     -84.849    -586.639
  H     -150.089     -84.800    -589.761
  H     -152.864     -86.113    -589.692
  H     -147.789     -90.323    -589.551
  H     -153.667     -84.588    -591.211
  H     -148.162     -89.056    -590.672
  H     -152.409     -82.327    -590.092
  H     -153.885     -82.765    -588.062
  H     -154.757     -82.850    -589.602
  P     -152.707     -83.460    -593.463
  C     -150.707     -84.266    -594.860
  O     -151.553     -83.175    -594.542
  O     -153.289     -81.995    -593.172
  O     -153.792     -84.360    -593.943
  H     -154.159     -81.900    -593.611
  H     -149.820     -83.880    -595.382
  H     -151.232     -84.952    -595.534
  H     -150.394     -84.801    -593.957
  H     -158.809     -83.476    -588.359
  H     -157.915     -83.235    -586.877
  H     -158.518     -84.823    -587.285

 3  4  5  6  7  8  9  10  11  12  23  26  30  31 0
 6-311+G(2d,p)
 ****
 33  35  36  37  38 0
 6-311+G(2d,p)
 ****
 1  2  13  14  15  16  17  18  19  20  21  22  24  25 0
 3-21G
 ****
 27  28  29  32  34  39  40  41  42  43  44  45  46  47  48  49 0
 3-21G
 ****


