%nproc=1
%NoSave
%Mem=1900MB
#P OB98/GEN NMR

erre ene a

0 1
  C      -19.604     -36.626      91.858
  O      -19.283     -37.171      93.123
  H      -20.604     -36.188      91.910
  H      -19.601     -37.400      91.086
  H      -18.891     -35.838      91.597
  P      -17.975     -38.097      93.237
  C      -16.258     -38.613      95.097
  O      -17.393     -37.837      94.713
  C      -15.363     -37.831      96.064
  O      -14.793     -36.687      95.397
  C      -16.105     -37.264      97.263
  O      -16.554     -38.241      98.180
  C      -15.168     -36.163      97.736
  O      -14.150     -36.624      98.619
  C      -14.531     -35.689      96.407
  N      -15.013     -34.373      96.007
  C      -14.333     -33.289      96.555
  O      -13.397     -33.403      97.347
  N      -14.794     -32.053      96.195
  C      -15.875     -31.802      95.401
  O      -16.264     -30.669      95.148
  C      -16.571     -32.989      94.872
  C      -16.114     -34.202      95.195
  O      -16.960     -37.926      92.147
  O      -18.566     -39.579      93.339
  H      -13.734     -37.401      98.197
  H      -17.872     -40.253      93.148
  H      -14.308     -31.255      96.574
  H      -17.433     -32.828      94.239
  H      -16.610     -35.093      94.817
  H      -13.440     -35.632      96.509
  H      -15.711     -35.373      98.262
  H      -17.009     -36.760      96.897
  H      -14.542     -38.486      96.379
  H      -15.691     -38.844      94.189
  H      -16.590     -39.549      95.557
  P      -17.253     -37.884      99.572
  C      -18.954     -39.004     101.187
  O      -18.298     -39.054      99.924
  O      -17.676     -36.463      99.767
  O      -16.053     -38.176     100.612
  H      -16.137     -37.532     101.342
  H      -19.614     -39.841     101.279
  H      -19.516     -38.097     101.261
  H      -18.225     -39.037     101.969

 6  7  8  9  10  11  12  13  14  15  16  26  31  32  33  34  35 0
 6-311+G(2d,p)
 ****
 36  37 0
 6-311+G(2d,p)
 ****
 1  2  3  4  5  17  18  19  20  21  22  23  24  25 0
 3-21G
 ****
 27  28  29  30  38  39  40  41  42  43  44  45 0
 3-21G
 ****


