%nproc=1
%NoSave
%Mem=1900MB
#P OB98/GEN NMR

erre ene a

0 1
  C      417.947     -42.099    -181.896
  O      417.836     -43.352    -181.244
  H      418.436     -41.383    -181.230
  H      418.570     -42.227    -182.789
  H      416.966     -41.727    -182.196
  P      416.737     -43.474    -180.086
  C      414.694     -43.961    -181.615
  O      415.334     -43.040    -180.740
  C      413.181     -43.938    -181.415
  O      412.688     -42.619    -181.789
  C      412.409     -44.977    -182.239
  O      411.336     -45.496    -181.441
  C      411.831     -44.161    -183.383
  O      410.655     -44.746    -183.933
  C      411.583     -42.829    -182.692
  N      408.815     -38.778    -184.046
  C      408.858     -39.505    -182.913
  N      409.671     -40.537    -182.605
  C      410.546     -40.761    -183.603
  C      410.638     -40.098    -184.822
  C      409.703     -39.066    -185.030
  N      409.610     -38.371    -186.218
  N      411.637     -40.651    -185.600
  C      412.125     -41.648    -184.876
  N      411.494     -41.751    -183.659
  O      417.102     -42.238    -179.127
  O      416.722     -44.770    -179.336
  H      410.894     -45.590    -184.355
  H      417.774     -42.517    -178.478
  H      408.135     -39.225    -182.144
  H      412.898     -42.335    -185.190
  H      410.649     -42.813    -182.105
  H      412.575     -44.061    -184.176
  H      413.033     -45.809    -182.600
  H      412.970     -44.064    -180.342
  H      415.065     -44.975    -181.402
  H      408.837     -37.722    -186.320
  H      410.184     -38.648    -186.996
  H      414.943     -43.706    -182.650
  P      411.691     -46.612    -180.342
  C      411.532     -45.408    -178.039
  O      412.370     -45.878    -179.087
  O      412.908     -47.406    -181.014
  O      410.552     -47.520    -180.019
  H      412.884     -48.340    -180.745
  H      412.132     -44.946    -177.283
  H      410.995     -46.231    -177.615
  H      410.839     -44.693    -178.430

 6  7  8  9  10  11  12  13  14  15  25  28  32  33  34  35 0
 6-311+G(2d,p)
 ****
 36  39  40 0
 6-311+G(2d,p)
 ****
 1  2  3  4  5  16  17  18  19  20  21  22  23  24 0
 3-21G
 ****
 26  27  29  30  31  37  38  41  42  43  44  45  46  47 0
 3-21G
 ****
 48 0
 3-21G
 ****


