%nproc=1
%NoSave
%Mem=1900MB
#P OB98/GEN NMR

erre ene a

0 1
  C      109.157      17.439     -15.784
  O      108.064      17.742     -16.626
  P      106.552      17.464     -16.173
  C      106.619      15.078     -17.127
  O      105.991      16.349     -17.183
  C      106.271      14.229     -18.352
  O      106.876      12.913     -18.219
  C      104.768      14.027     -18.582
  O      104.582      13.972     -20.000
  C      104.522      12.667     -17.960
  O      103.320      12.062     -18.418
  C      105.818      11.938     -18.340
  N      106.051      10.766     -17.505
  C      106.678       9.676     -18.113
  O      106.936       9.701     -19.318
  N      106.947       8.561     -17.359
  C      106.531       8.503     -16.133
  N      106.831       7.377     -15.433
  C      105.755       9.581     -15.491
  C      105.566      10.677     -16.221
  O      105.696      18.677     -16.039
  O      106.713      16.643     -14.809
  H      102.594      12.719     -18.336
  H      106.947      17.253     -14.065
  H      105.381       9.464     -14.486
  H      105.010      11.520     -15.836
  H      105.786      11.616     -19.389
  H      104.450      12.768     -16.870
  H      104.147      14.810     -18.140
  H      106.723      14.706     -19.230
  H      107.378       6.668     -15.908
  H      106.262      14.563     -16.231
  H      106.627       7.264     -14.452
  H      107.703      15.199     -17.033
  P      103.355      14.719     -20.709
  C      102.503      12.363     -21.226
  O      102.694      13.674     -21.723
  O      103.683      16.050     -21.302
  O      102.251      14.853     -19.553
  H      101.582      15.511     -19.819
  H      101.808      11.831     -21.881
  H      102.092      12.383     -20.212
  H      103.460      11.832     -21.217
  H      110.070      17.701     -16.276
  H      109.158      16.392     -15.564
  H      109.071      17.994     -14.874

 3  4  5  6  7  8  9  10  11  12  13  23  27  28  29  30  32 0
 6-311+G(2d,p)
 ****
 34  35 0
 6-311+G(2d,p)
 ****
 1  2  14  15  16  17  18  19  20  21  22  24  25  26 0
 3-21G
 ****
 31  33  36  37  38  39  40  41  42  43  44  45  46 0
 3-21G
 ****


