%nproc=1
%NoSave
%Mem=1900MB
#P OB98/GEN NMR

erre ene a

0 1
  C      -97.148     -46.710     -43.279
  O      -96.090     -46.904     -44.202
  P      -94.591     -46.615     -43.701
  C      -94.933     -44.034     -43.803
  O      -94.607     -45.166     -43.012
  C      -94.416     -42.753     -43.145
  O      -95.060     -42.607     -41.853
  C      -92.903     -42.719     -42.903
  O      -92.491     -41.352     -43.028
  C      -92.777     -43.159     -41.457
  O      -91.547     -42.753     -40.864
  C      -94.019     -42.512     -40.855
  N      -93.752     -42.467     -35.805
  C      -93.098     -41.677     -36.733
  N      -92.308     -40.702     -36.237
  N      -93.210     -41.830     -38.026
  C      -94.048     -42.836     -38.372
  C      -94.721     -43.709     -37.551
  C      -94.618     -43.506     -36.123
  O      -95.247     -44.125     -35.268
  N      -95.402     -44.654     -38.270
  C      -95.207     -44.302     -39.525
  N      -94.432     -43.180     -39.636
  O      -93.798     -46.377     -45.068
  O      -93.974     -47.685     -42.856
  H      -91.571     -43.011     -39.920
  H      -93.380     -47.202     -45.381
  H      -93.641     -42.291     -34.821
  H      -95.604     -44.814     -40.387
  H      -93.868     -41.451     -40.618
  H      -92.834     -44.253     -41.397
  H      -92.199     -40.508     -35.254
  H      -92.336     -43.353     -43.590
  H      -91.842     -40.088     -36.895
  H      -94.725     -41.901     -43.761
  H      -96.022     -43.966     -43.892
  H      -94.511     -44.153     -44.806
  P      -91.034     -41.061     -43.629
  C      -90.022     -41.019     -41.245
  O      -89.958     -41.554     -42.552
  O      -90.929     -39.463     -43.547
  O      -90.827     -41.535     -45.030
  H      -90.383     -39.133     -44.285
  H      -89.527     -41.710     -40.558
  H      -91.057     -40.878     -40.917
  H      -89.500     -40.060     -41.219
  H      -98.080     -46.940     -43.751
  H      -97.155     -45.691     -42.953
  H      -97.008     -47.353     -42.435

 3  4  5  6  7  8  9  10  11  12  23  26  30  31 0
 6-311+G(2d,p)
 ****
 33  35  36  37  38 0
 6-311+G(2d,p)
 ****
 1  2  13  14  15  16  17  18  19  20  21  22  24  25 0
 3-21G
 ****
 27  28  29  32  34  39  40  41  42  43  44  45  46  47  48  49 0
 3-21G
 ****


