%nproc=1
%NoSave
%Mem=1900MB
#P OB98/GEN NMR

erre ene a

0 1
  C       12.081    -915.390     211.582
  O       11.780    -914.699     210.362
  P       10.331    -914.078     210.033
  C       10.582    -911.691     211.011
  O       10.489    -912.495     209.827
  C       11.223    -910.342     210.703
  O       12.630    -910.503     210.417
  C       10.673    -909.621     209.474
  O        9.383    -909.074     209.696
  C       11.756    -908.580     209.222
  O       11.567    -907.414     210.034
  C       13.034    -909.324     209.678
  N       13.902    -909.690     208.565
  C       14.787    -908.693     208.108
  O       14.748    -907.563     208.591
  N       15.672    -909.001     207.118
  C       15.615    -910.177     206.539
  N       16.526    -910.441     205.568
  C       14.601    -911.198     206.886
  C       13.800    -910.901     207.900
  O        9.273    -914.454     211.021
  O        9.968    -914.623     208.568
  H        8.999    -914.646     208.468
  H       11.579    -907.715     210.960
  H       14.568    -912.142     206.361
  H       13.040    -911.593     208.242
  H       13.603    -908.714     210.387
  H       11.782    -908.248     208.176
  H       10.636    -910.321     208.634
  H       11.125    -909.701     211.588
  H       17.205    -909.722     205.355
  H       11.200    -912.222     211.746
  H       16.578    -911.318     205.077
  H        9.583    -911.571     211.436
  P        8.207    -909.556     208.715
  C        6.393    -910.085     210.500
  O        6.809    -909.250     209.447
  O        8.312    -911.149     208.748
  O        8.317    -909.025     207.318
  H        8.147    -911.506     207.854
  H        5.748    -909.521     211.168
  H        7.247    -910.476     211.064
  H        5.820    -910.928     210.086
  H       13.102    -915.708     211.569
  H       11.443    -916.244     211.675
  H       11.922    -914.734     212.412

 3  4  5  6  7  8  9  10  11  12  13  24  27  28  29  30  32 0
 6-311+G(2d,p)
 ****
 34  35 0
 6-311+G(2d,p)
 ****
 1  2  14  15  16  17  18  19  20  21  22  23  25  26 0
 3-21G
 ****
 31  33  36  37  38  39  40  41  42  43  44  45  46 0
 3-21G
 ****


