%nproc=1
%NoSave
%Mem=1900MB
#P OB98/GEN NMR

erre ene a

0 1
  C     -395.784     284.153    -294.031
  O     -394.471     283.677    -293.804
  H     -396.144     284.709    -293.159
  H     -395.770     284.823    -294.893
  H     -396.453     283.319    -294.238
  P     -394.260     282.760    -292.505
  C     -395.262     280.678    -293.685
  O     -395.360     281.592    -292.597
  C     -394.954     279.276    -293.172
  O     -396.038     278.811    -292.326
  C     -394.831     278.216    -294.259
  O     -393.559     278.257    -294.896
  C     -395.004     276.939    -293.435
  O     -393.759     276.616    -292.786
  C     -396.042     277.364    -292.383
  N     -399.415     273.493    -292.084
  C     -398.140     273.606    -291.667
  N     -397.293     274.657    -291.783
  C     -397.908     275.683    -292.399
  C     -399.208     275.708    -292.878
  C     -399.980     274.558    -292.707
  N     -401.289     274.440    -293.143
  N     -399.495     276.941    -293.440
  C     -398.383     277.646    -293.311
  N     -397.392     276.924    -292.695
  O     -394.803     283.674    -291.306
  O     -392.864     282.301    -292.256
  H     -393.546     277.364    -292.196
  H     -394.255     283.510    -290.512
  H     -397.730     272.735    -291.159
  H     -398.255     278.669    -293.644
  H     -395.783     276.993    -291.389
  H     -395.298     276.081    -294.033
  H     -395.654     278.287    -294.988
  H     -394.045     279.320    -292.567
  H     -394.455     280.997    -294.355
  H     -401.836     273.669    -292.821
  H     -401.700     275.245    -293.610
  H     -396.212     280.682    -294.232
  P     -393.513     277.996    -296.485
  C     -394.735     280.213    -297.108
  O     -394.782     278.788    -297.082
  O     -393.953     276.456    -296.610
  O     -392.213     278.256    -297.140
  H     -393.600     276.080    -297.437
  H     -395.643     280.592    -297.529
  H     -393.905     280.532    -297.704
  H     -394.622     280.584    -296.111

 6  7  8  9  10  11  12  13  14  15  25  28  32  33  34  35 0
 6-311+G(2d,p)
 ****
 36  39  40 0
 6-311+G(2d,p)
 ****
 1  2  3  4  5  16  17  18  19  20  21  22  23  24 0
 3-21G
 ****
 26  27  29  30  31  37  38  41  42  43  44  45  46  47  48 0
 3-21G
 ****


