%nproc=1
%NoSave
%Mem=1900MB
#P OB98/GEN NMR

erre ene a

0 1
  C     -104.165    -473.342    -139.036
  O     -103.415    -474.401    -139.606
  P     -102.060    -474.085    -140.398
  C     -102.807    -475.462    -142.481
  O     -102.388    -474.219    -141.961
  C     -102.195    -475.724    -143.861
  O     -102.705    -476.987    -144.346
  C     -102.560    -474.692    -144.930
  O     -101.625    -474.797    -146.005
  C     -103.915    -475.183    -145.382
  O     -104.274    -474.668    -146.666
  C     -103.767    -476.721    -145.299
  N     -105.020    -477.372    -144.869
  C     -106.172    -477.045    -145.583
  O     -106.165    -476.317    -146.575
  N     -107.347    -477.520    -145.057
  C     -107.470    -478.225    -143.892
  O     -108.519    -478.374    -143.288
  C     -106.205    -478.733    -143.329
  C     -105.052    -478.271    -143.815
  O     -101.161    -475.376    -140.086
  O     -101.373    -472.820    -139.995
  H     -104.319    -473.683    -146.574
  H     -100.556    -475.197    -139.345
  H     -108.196    -477.162    -145.492
  H     -106.266    -479.420    -142.494
  H     -104.106    -478.589    -143.382
  H     -103.478    -477.147    -146.269
  H     -104.680    -474.838    -144.673
  H     -102.598    -473.659    -144.562
  H     -101.108    -475.808    -143.770
  H     -103.902    -475.482    -142.531
  H     -102.514    -476.273    -141.800
  P     -101.189    -473.453    -146.763
  C     -102.399    -474.328    -148.858
  O     -102.248    -473.250    -147.955
  O      -99.753    -473.356    -147.159
  O     -101.607    -472.305    -145.723
  H     -101.128    -471.474    -145.942
  H     -103.417    -474.317    -149.253
  H     -102.222    -475.295    -148.367
  H     -101.693    -474.210    -149.687
  H     -105.032    -473.740    -138.550
  H     -104.468    -472.664    -139.807
  H     -103.562    -472.823    -138.321

 3  4  5  6  7  8  9  10  11  12  13  23  28  29  30  31  32 0
 6-311+G(2d,p)
 ****
 33  34 0
 6-311+G(2d,p)
 ****
 1  2  14  15  16  17  18  19  20  21  22  24  25  26  27 0
 3-21G
 ****
 35  36  37  38  39  40  41  42  43  44  45 0
 3-21G
 ****


