%nproc=1
%NoSave
%Mem=1900MB
#P OB98/GEN NMR

erre ene a

0 1
  C       37.797     185.930     627.314
  O       36.529     185.954     627.939
  H       37.776     186.590     626.444
  H       38.034     184.914     626.979
  H       38.571     186.277     628.007
  P       36.371     185.114     629.293
  C       33.798     185.353     629.039
  O       34.929     185.485     629.896
  C       32.689     186.317     629.457
  O       32.357     186.083     630.854
  C       33.064     187.808     629.325
  O       31.885     188.525     628.937
  C       33.407     188.197     630.749
  O       33.308     189.601     630.975
  C       32.383     187.360     631.515
  N       31.203     188.978     636.136
  C       30.626     189.262     634.909
  N       29.573     190.106     634.914
  N       31.048     188.752     633.782
  C       32.080     187.898     633.931
  C       32.746     187.540     635.079
  C       32.288     188.129     636.321
  O       32.769     187.934     637.435
  N       33.776     186.664     634.806
  C       33.724     186.503     633.494
  N       32.721     187.228     632.923
  O       37.394     185.851     630.285
  O       36.660     183.651     629.183
  H       34.061     190.039     630.508
  H       38.261     185.405     630.266
  H       30.843     189.408     636.965
  H       34.402     185.876     632.927
  H       31.378     187.788     631.474
  H       34.433     187.886     630.994
  H       29.162     190.501     635.752
  H       33.869     188.007     628.613
  H       29.106     190.291     634.034
  H       31.792     186.088     628.867
  H       33.425     184.324     629.107
  H       34.105     185.554     628.007
  P       32.030     189.665     627.813
  C       30.736     191.935     627.899
  O       30.658     190.514     627.788
  O       31.950     188.832     626.444
  O       33.284     190.463     627.905
  H       32.442     189.299     625.748
  H       29.750     192.350     627.866
  H       31.314     192.325     627.087
  H       31.202     192.195     628.826

 6  7  8  9  10  11  12  13  14  15  26  29  33  34 0
 6-311+G(2d,p)
 ****
 36  38  39  40  41 0
 6-311+G(2d,p)
 ****
 1  2  3  4  5  16  17  18  19  20  21  22  23  24  25 0
 3-21G
 ****
 27  28  30  31  32  35  37  42  43  44  45  46  47 0
 3-21G
 ****
 48  49 0
 3-21G
 ****


