%nproc=1
%NoSave
%Mem=1900MB
#P OB98/GEN NMR

erre ene a

0 1
  C     -106.797      37.677     -13.106
  O     -105.620      37.717     -13.894
  P     -105.784      37.848     -15.488
  C     -106.096      35.265     -15.623
  O     -106.587      36.548     -15.978
  C     -106.858      34.172     -16.378
  O     -108.251      34.221     -15.978
  C     -106.819      34.297     -17.906
  O     -106.855      32.966     -18.436
  C     -108.121      35.008     -18.224
  O     -108.539      34.815     -19.570
  C     -109.042      34.394     -17.175
  N     -114.032      34.506     -16.336
  C     -113.216      33.446     -16.692
  N     -113.812      32.236     -16.777
  N     -111.938      33.560     -16.939
  C     -111.482      34.828     -16.799
  C     -112.193      35.965     -16.487
  C     -113.599      35.817     -16.181
  O     -114.337      36.711     -15.778
  N     -111.399      37.081     -16.527
  C     -110.196      36.607     -16.778
  N     -110.185      35.245     -16.904
  O     -104.298      37.599     -16.021
  O     -106.362      39.142     -15.974
  H     -107.817      35.126     -20.157
  H     -103.823      38.444     -16.145
  H     -115.006      34.352     -16.139
  H     -109.296      37.200     -16.872
  H     -109.425      33.410     -17.478
  H     -108.003      36.088     -18.061
  H     -114.785      32.068     -16.570
  H     -105.940      34.834     -18.279
  H     -113.232      31.436     -17.002
  H     -106.461      33.198     -16.062
  H     -106.242      35.115     -14.547
  H     -105.023      35.211     -15.837
  P     -105.785      32.578     -19.564
  C     -107.461      33.347     -21.385
  O     -106.142      33.419     -20.880
  O     -106.208      31.083     -19.957
  O     -104.358      32.628     -19.119
  H     -105.416      30.575     -20.217
  H     -107.651      34.237     -21.994
  H     -108.201      33.307     -20.580
  H     -107.560      32.459     -22.015
  H     -106.532      37.589     -12.073
  H     -107.391      36.835     -13.395
  H     -107.357      38.577     -13.255

 3  4  5  6  7  8  9  10  11  12  23  26  30  31 0
 6-311+G(2d,p)
 ****
 33  35  36  37  38 0
 6-311+G(2d,p)
 ****
 1  2  13  14  15  16  17  18  19  20  21  22  24  25 0
 3-21G
 ****
 27  28  29  32  34  39  40  41  42  43  44  45  46  47  48  49 0
 3-21G
 ****


