%nproc=1
%NoSave
%Mem=1900MB
#P OB98/GEN NMR

erre ene a

0 1
  C      -25.263    -894.100    -291.198
  O      -26.212    -894.340    -292.214
  H      -25.781    -893.750    -290.304
  H      -24.564    -893.330    -291.526
  H      -24.715    -895.010    -290.949
  P      -25.742    -895.230    -293.468
  C      -24.947    -893.230    -294.927
  O      -25.878    -894.290    -294.770
  C      -24.610    -893.040    -296.405
  O      -23.855    -894.210    -296.871
  C      -25.842    -892.890    -297.315
  O      -25.533    -891.950    -298.357
  C      -25.962    -894.260    -297.948
  O      -26.668    -894.230    -299.182
  C      -24.491    -894.650    -298.082
  N      -22.425    -898.040    -301.141
  C      -22.256    -896.680    -301.076
  N      -21.455    -896.110    -302.001
  N      -22.824    -895.920    -300.167
  C      -23.587    -896.620    -299.295
  C      -23.834    -897.970    -299.252
  C      -23.210    -898.790    -300.263
  O      -23.341    -900.000    -300.393
  N      -24.707    -898.280    -298.240
  C      -24.999    -897.110    -297.683
  N      -24.338    -896.080    -298.292
  O      -26.947    -896.270    -293.625
  O      -24.429    -895.910    -293.306
  H      -26.805    -895.160    -299.486
  H      -26.733    -897.100    -293.150
  H      -21.974    -898.580    -301.868
  H      -25.691    -896.970    -296.861
  H      -24.005    -894.150    -298.935
  H      -26.489    -894.950    -297.269
  H      -20.955    -896.630    -302.709
  H      -26.749    -892.580    -296.794
  H      -21.289    -895.110    -301.943
  H      -23.942    -892.170    -296.500
  H      -24.034    -893.480    -294.381
  H      -25.368    -892.320    -294.509
  P      -26.174    -890.480    -298.257
  C      -28.670    -890.990    -298.843
  O      -27.430    -890.410    -299.256
  O      -25.085    -889.560    -298.981
  O      -26.437    -890.030    -296.856
  H      -25.059    -888.680    -298.546
  H      -29.399    -890.860    -299.615
  H      -29.008    -890.510    -297.949
  H      -28.531    -892.034    -298.656

 6  7  8  9  10  11  12  13  14  15  26  29  33  34 0
 6-311+G(2d,p)
 ****
 36  38  39  40  41 0
 6-311+G(2d,p)
 ****
 1  2  3  4  5  16  17  18  19  20  21  22  23  24  25 0
 3-21G
 ****
 27  28  30  31  32  35  37  42  43  44  45  46  47 0
 3-21G
 ****
 48  49 0
 3-21G
 ****


