%nproc=1
%NoSave
%Mem=1900MB
#P OB98/GEN NMR

erre ene a

0 1
  C      111.261      40.313       8.005
  O      112.342      41.190       8.311
  P      113.385      40.717       9.433
  C      115.471      41.717       8.193
  O      114.662      41.680       9.356
  C      116.505      42.853       8.271
  O      115.800      44.121       8.172
  C      117.294      42.932       9.575
  O      118.467      43.723       9.355
  C      116.335      43.688      10.472
  O      117.001      44.241      11.605
  C      115.706      44.711       9.497
  N      114.299      45.038       9.809
  C      113.995      45.508      11.086
  O      114.829      45.667      11.977
  N      112.672      45.762      11.335
  C      111.650      45.634      10.442
  O      110.471      45.792      10.744
  C      112.041      45.271       9.073
  C      113.323      44.984       8.826
  O      113.917      39.312       8.876
  O      112.790      40.592      10.796
  H      116.298      44.647      12.168
  H      113.522      38.578       9.387
  H      112.428      46.037      12.278
  H      111.266      45.227       8.320
  H      113.626      44.695       7.822
  H      116.268      45.652       9.499
  H      115.565      43.006      10.846
  H      117.571      41.963       9.997
  H      117.180      42.785       7.414
  H      114.841      41.830       7.306
  H      115.994      40.757       8.082
  P      119.883      42.977       9.325
  C      120.518      44.148       7.126
  O      120.868      43.919       8.479
  O      119.856      41.540       8.924
  O      120.423      43.167      10.826
  H      121.121      42.514      11.007
  H      120.896      45.130       6.828
  H      119.433      44.128       6.984
  H      120.979      43.381       6.497
  H      110.649      40.753       7.245
  H      110.675      40.149       8.885
  H      111.648      39.379       7.655

 3  4  5  6  7  8  9  10  11  12  13  23  28  29  30  31  32 0
 6-311+G(2d,p)
 ****
 33  34 0
 6-311+G(2d,p)
 ****
 1  2  14  15  16  17  18  19  20  21  22  24  25  26  27 0
 3-21G
 ****
 35  36  37  38  39  40  41  42  43  44  45 0
 3-21G
 ****


