%nproc=1
%NoSave
%Mem=1900MB
#P OB98/GEN NMR

erre ene a

0 1
  C      -94.315      56.774     198.228
  O      -93.695      57.116     199.450
  H      -94.420      55.687     198.181
  H      -93.704      57.106     197.383
  H      -95.307      57.227     198.172
  P      -93.397      58.673     199.692
  C      -94.134      59.152     202.116
  O      -93.061      58.777     201.260
  C      -94.838      57.911     202.663
  O      -93.859      57.096     203.361
  C      -95.962      58.231     203.654
  O      -97.016      57.282     203.487
  C      -95.303      58.013     205.006
  O      -96.251      57.746     206.034
  C      -94.355      56.859     204.689
  N      -91.659      53.698     207.631
  C      -92.572      53.474     206.662
  N      -93.227      54.381     205.908
  C      -92.812      55.628     206.198
  C      -91.893      56.011     207.156
  C      -91.307      54.976     207.906
  N      -90.402      55.194     208.918
  N      -91.772      57.386     207.184
  C      -92.597      57.824     206.251
  N      -93.262      56.796     205.643
  O      -94.446      59.615     199.204
  O      -91.955      58.844     199.020
  H      -95.816      57.885     206.901
  H      -91.348      58.129     199.289
  H      -92.816      52.432     206.473
  H      -92.759      58.865     205.992
  H      -94.858      55.883     204.705
  H      -94.741      58.909     205.294
  H      -96.353      59.243     203.548
  H      -95.207      57.314     201.822
  H      -94.854      59.770     201.568
  H      -90.029      54.393     209.403
  H      -90.120      56.138     209.136
  H      -93.719      59.748     202.935
  P      -98.172      57.583     202.418
  C      -99.175      55.233     202.092
  O      -99.364      56.529     202.639
  O      -97.721      57.737     201.005
  O      -98.814      58.946     202.967
  H      -98.996      59.540     202.212
  H     -100.032      54.628     202.304
  H      -98.306      54.786     202.527
  H      -99.045      55.308     201.033

 6  7  8  9  10  11  12  13  14  15  25  28  32  33  34  35 0
 6-311+G(2d,p)
 ****
 36  39  40 0
 6-311+G(2d,p)
 ****
 1  2  3  4  5  16  17  18  19  20  21  22  23  24 0
 3-21G
 ****
 26  27  29  30  31  37  38  41  42  43  44  45  46  47 0
 3-21G
 ****
 48 0
 3-21G
 ****


