%nproc=1
%NoSave
%Mem=1900MB
#P OB98/GEN NMR

erre ene a

0 1
  C      -35.211    -133.573     103.625
  O      -34.799    -132.415     104.354
  P      -34.581    -132.515     105.936
  C      -32.796    -134.034     107.030
  O      -33.050    -132.879     106.238
  C      -31.286    -134.256     107.164
  O      -30.631    -134.243     105.873
  C      -30.593    -133.156     107.959
  O      -30.869    -133.101     109.343
  C      -29.142    -133.323     107.544
  O      -28.493    -134.346     108.298
  C      -29.288    -133.748     106.064
  N      -28.985    -132.661     105.132
  C      -27.638    -132.349     104.975
  O      -26.738    -132.904     105.601
  N      -27.360    -131.341     104.091
  C      -28.277    -130.609     103.394
  O      -27.973    -129.700     102.632
  C      -29.685    -130.969     103.620
  C      -29.972    -131.962     104.465
  O      -35.586    -133.328     106.678
  O      -34.662    -130.976     106.399
  H      -28.568    -134.106     109.241
  H      -35.167    -130.943     107.234
  H      -26.388    -131.106     103.958
  H      -30.440    -130.407     103.088
  H      -31.004    -132.245     104.645
  H      -28.611    -134.581     105.836
  H      -28.570    -132.402     107.698
  H      -30.927    -132.189     107.555
  H      -31.116    -135.238     107.609
  H      -33.267    -134.906     106.574
  H      -33.267    -133.903     108.010
  P      -31.444    -131.795     110.075
  C      -33.832    -131.077     110.779
  O      -33.026    -131.731     109.825
  O      -30.674    -130.527     109.918
  O      -31.376    -132.244     111.618
  H      -31.191    -131.454     112.160
  H      -34.876    -131.143     110.457
  H      -33.557    -130.021     110.856
  H      -33.737    -131.559     111.756
  H      -35.307    -133.326     102.588
  H      -36.154    -133.913     103.999
  H      -34.481    -134.346     103.741

 3  4  5  6  7  8  9  10  11  12  13  23  28  29  30  31  32 0
 6-311+G(2d,p)
 ****
 33  34 0
 6-311+G(2d,p)
 ****
 1  2  14  15  16  17  18  19  20  21  22  24  25  26  27 0
 3-21G
 ****
 35  36  37  38  39  40  41  42  43  44  45 0
 3-21G
 ****


