%nproc=1
%NoSave
%Mem=1900MB
#P OB98/GEN NMR

erre ene a

0 1
  C      -66.001     -90.008    -102.620
  O      -65.449     -89.061    -101.727
  H      -65.683     -91.016    -102.343
  H      -67.090     -89.953    -102.560
  H      -65.692     -89.786    -103.646
  P      -63.849     -88.962    -101.686
  C      -63.538     -90.820     -99.902
  O      -63.322     -90.412    -101.245
  C      -62.218     -91.238     -99.262
  O      -62.424     -91.582     -97.877
  C      -61.562     -92.461     -99.896
  O      -60.864     -92.128    -101.086
  C      -60.607     -92.876     -98.787
  O      -59.438     -92.036     -98.813
  C      -61.435     -92.587     -97.526
  N      -61.176     -96.450     -94.183
  C      -60.362     -95.398     -94.410
  N      -60.508     -94.398     -95.304
  C      -61.647     -94.548     -95.998
  C      -62.589     -95.554     -95.865
  C      -62.318     -96.546     -94.909
  N      -63.128     -97.657     -94.733
  N      -63.622     -95.379     -96.765
  C      -63.298     -94.296     -97.440
  N      -62.118     -93.756     -97.009
  O      -63.582     -88.049    -100.395
  O      -63.216     -88.388    -102.909
  H      -58.801     -92.423     -98.184
  H      -63.447     -87.126    -100.678
  H      -59.469     -95.354     -93.794
  H      -63.881     -93.874     -98.247
  H      -60.825     -92.170     -96.717
  H      -60.264     -93.910     -98.880
  H      -62.287     -93.265    -100.063
  H      -61.541     -90.375     -99.292
  H      -64.231     -91.666     -99.885
  H      -62.626     -98.476     -94.401
  H      -63.803     -97.804     -95.474
  H      -63.980     -89.986     -99.349
  P      -61.136     -93.027    -102.387
  C      -58.903     -94.271    -101.992
  O      -60.306     -94.387    -102.182
  O      -60.324     -92.254    -103.529
  O      -62.568     -93.192    -102.759
  H      -60.924     -92.032    -104.267
  H      -58.478     -95.245    -101.869
  H      -58.709     -93.684    -101.119
  H      -58.466     -93.796    -102.845

 6  7  8  9  10  11  12  13  14  15  25  28  32  33  34  35 0
 6-311+G(2d,p)
 ****
 36  39  40 0
 6-311+G(2d,p)
 ****
 1  2  3  4  5  16  17  18  19  20  21  22  23  24 0
 3-21G
 ****
 26  27  29  30  31  37  38  41  42  43  44  45  46  47  48 0
 3-21G
 ****


