%nproc=1
%NoSave
%Mem=1900MB
#P OB98/GEN NMR

erre ene a

0 1
  C     -115.295     -33.157     185.948
  O     -116.349     -32.297     185.578
  H     -115.170     -33.106     187.034
  H     -114.360     -32.839     185.481
  H     -115.522     -34.189     185.670
  P     -116.726     -32.139     184.026
  C     -118.933     -31.700     182.791
  O     -118.224     -31.545     184.013
  C     -120.417     -31.378     182.972
  O     -120.986     -32.259     183.979
  C     -120.684     -29.932     183.421
  O     -121.728     -29.366     182.626
  C     -121.163     -30.086     184.856
  O     -121.970     -28.997     185.294
  C     -121.861     -31.448     184.783
  N     -122.090     -32.018     186.103
  C     -123.112     -31.434     186.859
  O     -123.765     -30.496     186.398
  N     -123.333     -31.886     188.133
  C     -122.570     -32.808     188.630
  N     -122.824     -33.191     189.909
  C     -121.462     -33.433     187.878
  C     -121.282     -32.998     186.631
  O     -116.528     -33.370     183.208
  O     -115.853     -30.899     183.516
  H     -122.637     -28.805     184.599
  H     -115.755     -30.959     182.537
  H     -120.851     -34.194     188.339
  H     -120.493     -33.396     186.003
  H     -122.825     -31.368     184.264
  H     -120.292     -30.149     185.522
  H     -119.804     -29.294     183.358
  H     -120.939     -31.605     182.034
  H     -123.589     -32.731     190.390
  H     -118.806     -32.732     182.441
  H     -122.284     -33.880     190.408
  H     -118.506     -31.015     182.054
  P     -121.288     -28.228     181.582
  C     -122.443     -26.854     179.707
  O     -122.607     -27.710     180.829
  O     -120.496     -29.048     180.458
  O     -120.436     -27.164     182.187
  H     -119.545     -28.837     180.503
  H     -123.403     -26.594     179.313
  H     -121.874     -27.358     178.954
  H     -121.929     -25.966     180.008

 6  7  8  9  10  11  12  13  14  15  16  26  30  31  32  33  35 0
 6-311+G(2d,p)
 ****
 37  38 0
 6-311+G(2d,p)
 ****
 1  2  3  4  5  17  18  19  20  21  22  23  24  25 0
 3-21G
 ****
 27  28  29  34  36  39  40  41  42  43  44  45  46 0
 3-21G
 ****


