%nproc=1
%NoSave
%Mem=1900MB
#P OB98/GEN NMR

erre ene a

0 1
  C       34.482     607.014    -172.377
  O       35.541     606.064    -172.318
  P       36.290     605.638    -173.654
  C       38.202     607.390    -173.761
  O       37.847     606.011    -173.525
  C       39.044     607.930    -172.604
  O       38.285     608.169    -171.432
  C       40.177     606.970    -172.184
  O       41.206     606.960    -173.150
  C       40.546     607.537    -170.826
  O       41.452     608.659    -170.948
  C       39.164     608.027    -170.284
  N       38.586     607.136    -169.286
  C       39.333     606.961    -168.125
  O       40.455     607.500    -168.002
  N       38.852     606.145    -167.147
  C       37.688     605.568    -167.294
  N       37.239     604.758    -166.286
  C       36.867     605.712    -168.512
  C       37.357     606.488    -169.454
  O       35.655     606.124    -174.930
  O       36.310     604.037    -173.599
  H       41.476     609.066    -170.070
  H       36.294     603.682    -174.487
  H       35.905     605.218    -168.596
  H       36.828     606.669    -170.363
  H       39.266     609.012    -169.835
  H       41.028     606.771    -170.203
  H       39.764     605.942    -172.082
  H       39.494     608.893    -172.943
  H       37.829     604.680    -165.444
  H       37.289     608.000    -173.860
  H       36.326     604.324    -166.288
  H       38.724     607.473    -174.728
  P       41.991     605.570    -173.375
  C       40.818     604.771    -175.571
  O       42.009     605.281    -174.959
  O       40.925     604.491    -172.811
  O       43.304     605.458    -172.707
  H       41.438     603.737    -172.433
  H       40.888     604.953    -176.659
  H       39.931     605.281    -175.188
  H       40.736     603.693    -175.374
  H       34.097     607.180    -171.393
  H       33.702     606.640    -173.007
  H       34.851     607.936    -172.776

 3  4  5  6  7  8  9  10  11  12  13  23  27  28  29  30  32 0
 6-311+G(2d,p)
 ****
 34  35 0
 6-311+G(2d,p)
 ****
 1  2  14  15  16  17  18  19  20  21  22  24  25  26 0
 3-21G
 ****
 31  33  36  37  38  39  40  41  42  43  44  45  46 0
 3-21G
 ****


