%nproc=1
%NoSave
%Mem=1900MB
#P OB98/GEN NMR

erre ene a

0 1
  C     -329.073      90.846     366.342
  O     -329.610      89.780     365.538
  P     -329.911      88.322     366.129
  C     -328.747      86.542     367.600
  O     -328.619      87.788     366.920
  C     -327.517      85.648     367.369
  O     -327.450      85.213     366.000
  C     -326.179      86.324     367.652
  O     -325.936      86.431     369.042
  C     -325.224      85.397     366.899
  O     -324.897      84.238     367.694
  C     -326.062      84.999     365.673
  N     -325.681      85.728     364.467
  C     -324.997      85.002     363.490
  O     -324.701      83.824     363.678
  N     -324.647      85.638     362.316
  C     -324.898      86.896     362.175
  N     -324.539      87.478     360.990
  C     -325.533      87.731     363.221
  C     -325.895      87.081     364.335
  O     -330.440      87.351     365.112
  O     -330.991      88.551     367.288
  H     -325.745      83.768     367.855
  H     -331.566      87.760     367.354
  H     -325.696      88.786     363.068
  H     -326.385      87.609     365.143
  H     -325.967      83.912     365.471
  H     -324.285      85.884     366.638
  H     -326.161      87.317     367.180
  H     -327.630      84.756     368.009
  H     -324.114      86.885     360.295
  H     -329.636      86.029     367.212
  H     -324.685      88.452     360.778
  H     -328.886      86.732     368.665
  P     -326.228      87.814     369.795
  C     -324.967      90.019     370.194
  O     -325.035      88.824     369.434
  O     -326.548      87.702     371.258
  O     -327.465      88.441     368.983
  H     -328.023      88.964     369.597
  H     -323.944      90.408     370.140
  H     -325.233      89.848     371.242
  H     -325.651      90.759     369.757
  H     -328.955      91.723     365.740
  H     -328.122      90.552     366.734
  H     -329.743      91.056     367.150

 3  4  5  6  7  8  9  10  11  12  13  23  27  28  29  30  32 0
 6-311+G(2d,p)
 ****
 34  35 0
 6-311+G(2d,p)
 ****
 1  2  14  15  16  17  18  19  20  21  22  24  25  26 0
 3-21G
 ****
 31  33  36  37  38  39  40  41  42  43  44  45  46 0
 3-21G
 ****


