%nproc=1
%NoSave
%Mem=1900MB
#P OB98/GEN NMR

erre ene a

0 1
  C      134.989     583.026    -522.078
  O      136.100     583.906    -522.248
  P      137.373     583.603    -523.155
  C      138.777     582.769    -521.096
  O      138.680     583.633    -522.237
  C      139.895     583.195    -520.112
  O      141.178     583.029    -520.764
  C      139.765     584.674    -519.769
  O      138.880     585.089    -518.728
  C      141.206     585.149    -519.555
  O      141.618     585.098    -518.190
  C      142.022     584.157    -520.403
  N      144.994     587.806    -522.389
  C      144.623     587.618    -521.072
  N      145.035     588.528    -520.182
  N      143.876     586.625    -520.677
  C      143.444     585.814    -521.690
  C      143.741     585.933    -523.034
  C      144.610     587.010    -523.460
  O      144.987     587.227    -524.607
  N      143.102     584.951    -523.774
  C      142.410     584.268    -522.887
  N      142.599     584.757    -521.596
  O      137.440     584.355    -524.447
  O      137.205     582.028    -523.515
  H      140.951     585.563    -517.652
  H      137.582     581.903    -524.421
  H      145.592     588.591    -522.639
  H      141.775     583.425    -523.103
  H      142.867     583.744    -519.827
  H      141.324     586.190    -519.876
  H      145.509     589.391    -520.432
  H      139.422     585.192    -520.663
  H      144.585     588.509    -519.249
  H      139.912     582.539    -519.243
  H      138.955     581.755    -521.477
  H      137.810     582.736    -520.562
  P      137.372     585.599    -518.940
  C      137.807     588.107    -518.659
  O      137.195     586.963    -518.111
  O      136.499     584.556    -518.086
  O      136.910     585.656    -520.359
  H      135.561     584.620    -518.349
  H      137.886     588.884    -517.881
  H      137.190     588.494    -519.487
  H      138.815     587.885    -519.029
  H      134.276     583.475    -521.418
  H      135.328     582.101    -521.661
  H      134.531     582.843    -523.027

 3  4  5  6  7  8  9  10  11  12  23  26  30  31 0
 6-311+G(2d,p)
 ****
 33  35  36  37  38 0
 6-311+G(2d,p)
 ****
 1  2  13  14  15  16  17  18  19  20  21  22  24  25 0
 3-21G
 ****
 27  28  29  32  34  39  40  41  42  43  44  45  46  47  48  49 0
 3-21G
 ****


