%nproc=1
%NoSave
%Mem=1900MB
#P OB98/GEN NMR

erre ene a

0 1
  C      -73.339       4.689      53.589
  O      -73.115       3.324      53.881
  H      -72.374       5.181      53.441
  H      -73.855       5.172      54.424
  H      -73.931       4.791      52.676
  P      -74.415       2.409      54.092
  C      -74.522       2.556      56.687
  O      -75.111       2.922      55.444
  C      -75.524       2.771      57.818
  O      -76.058       4.112      57.738
  C      -76.734       1.845      57.765
  O      -76.438       0.556      58.275
  C      -77.735       2.618      58.615
  O      -77.537       2.374      60.014
  C      -77.394       4.077      58.285
  N      -82.287       5.307      57.552
  C      -81.633       4.801      58.621
  N      -80.317       4.518      58.742
  C      -79.665       4.821      57.607
  C      -80.197       5.335      56.437
  C      -81.578       5.586      56.433
  N      -82.251       6.067      55.333
  N      -79.216       5.468      55.474
  C      -78.108       5.051      56.056
  N      -78.333       4.656      57.345
  O      -73.791       0.991      54.501
  O      -75.319       2.303      52.909
  H      -78.155       2.962      60.490
  H      -73.711       0.429      53.707
  H      -82.247       4.591      59.493
  H      -77.133       5.008      55.587
  H      -77.395       4.714      59.178
  H      -78.761       2.332      58.378
  H      -77.118       1.778      56.739
  H      -74.997       2.670      58.775
  H      -73.638       3.179      56.865
  H      -74.214       1.506      56.638
  H      -83.248       6.201      55.395
  H      -81.751       6.177      54.461
  P      -76.991      -0.724      57.486
  C      -78.739      -1.208      59.349
  O      -78.499      -0.979      57.968
  O      -76.173      -1.936      58.134
  O      -76.821      -0.663      56.004
  H      -75.432      -2.196      57.554
  H      -79.786      -1.360      59.509
  H      -78.411      -0.360      59.913
  H      -78.200      -2.077      59.665

 6  7  8  9  10  11  12  13  14  15  25  28  32  33  34  35 0
 6-311+G(2d,p)
 ****
 36  37  40 0
 6-311+G(2d,p)
 ****
 1  2  3  4  5  16  17  18  19  20  21  22  23  24 0
 3-21G
 ****
 26  27  29  30  31  38  39 41  42  43  44  45  46  47  48 0
 3-21G
 ****


