%nproc=1
%NoSave
%Mem=1900MB
#P OB98/GEN NMR

erre ene a

0 1
  C      -29.413      23.716      80.700
  O      -28.047      24.065      80.685
  P      -26.959      23.071      80.054
  C      -25.963      22.194      82.259
  O      -26.761      21.887      81.121
  C      -25.586      20.912      82.996
  O      -26.758      20.099      83.264
  C      -24.666      19.990      82.209
  O      -23.360      20.450      81.943
  C      -24.797      18.696      82.996
  O      -23.966      18.704      84.155
  C      -26.293      18.734      83.401
  N      -27.097      17.805      82.609
  C      -27.645      16.732      83.302
  O      -27.485      16.545      84.507
  N      -28.371      15.846      82.553
  C      -28.557      15.903      81.202
  O      -29.182      15.048      80.587
  C      -27.939      17.050      80.523
  C      -27.247      17.936      81.243
  O      -25.693      23.720      79.605
  O      -27.766      22.338      78.881
  H      -24.210      19.487      84.686
  H      -28.549      21.840      79.176
  H      -28.767      15.053      83.032
  H      -28.079      17.131      79.453
  H      -26.781      18.790      80.763
  H      -26.407      18.468      84.459
  H      -24.509      17.826      82.398
  H      -25.121      19.814      81.226
  H      -25.155      21.185      83.962
  H      -26.538      22.836      82.933
  H      -25.074      22.749      81.944
  P      -22.559      20.101      80.600
  C      -21.338      18.216      81.894
  O      -22.012      18.599      80.715
  O      -21.614      21.140      80.094
  O      -23.760      19.933      79.546
  H      -23.447      20.205      78.663
  H      -20.999      17.183      81.782
  H      -22.010      18.271      82.754
  H      -20.464      18.853      82.060
  H      -29.977      24.501      81.159
  H      -29.544      22.811      81.256
  H      -29.755      23.570      79.697

 3  4  5  6  7  8  9  10  11  12  13  23  28  29  30  31  32 0
 6-311+G(2d,p)
 ****
 33  34 0
 6-311+G(2d,p)
 ****
 1  2  14  15  16  17  18  19  20  21  22  24  25  26  27 0
 3-21G
 ****
 35  36  37  38  39  40  41  42  43  44  45 0
 3-21G
 ****


