%nproc=1
%NoSave
%Mem=1900MB
#P OB98/GEN NMR

erre ene a

0 1
  C      801.830     197.512    -878.139
  O      802.400     198.635    -878.770
  H      800.736     197.570    -878.233
  H      802.098     197.502    -877.077
  H      802.169     196.580    -878.618
  P      804.001     198.640    -878.942
  C      805.893     197.928    -877.313
  O      804.615     198.519    -877.457
  C      806.088     197.443    -875.880
  O      805.180     196.365    -875.581
  C      807.490     196.916    -875.574
  O      808.400     197.987    -875.288
  C      807.215     196.078    -874.346
  O      807.058     196.923    -873.197
  C      805.859     195.425    -874.704
  N      804.154     190.648    -874.949
  C      803.783     191.677    -874.103
  N      802.839     191.417    -873.193
  N      804.297     192.882    -874.155
  C      805.264     193.019    -875.112
  C      805.713     192.072    -876.002
  C      805.113     190.761    -875.946
  O      805.390     189.805    -876.678
  N      806.676     192.573    -876.820
  C      806.823     193.831    -876.425
  N      805.996     194.135    -875.374
  O      804.328     200.148    -879.359
  O      804.539     197.663    -879.936
  H      807.938     197.303    -872.997
  H      805.072     200.154    -880.004
  H      803.732     189.753    -874.859
  H      807.532     194.542    -876.852
  H      805.235     195.262    -873.827
  H      808.017     195.376    -874.118
  H      802.426     190.488    -873.077
  H      807.870     196.278    -876.394
  H      802.531     192.166    -872.591
  H      805.833     198.269    -875.197
  H      806.682     198.665    -877.556
  H      805.977     197.087    -878.005
  P      809.908     197.827    -875.808
  C      811.801     196.059    -875.436
  O      810.509     196.534    -875.060
  O      810.670     199.046    -875.091
  O      810.070     197.844    -877.301
  H      811.476     199.274    -875.598
  H      812.050     195.200    -874.848
  H      812.526     196.828    -875.269
  H      811.795     195.792    -876.472

 6  7  8  9  10  11  12  13  14  15  26  29  33  34 0
 6-311+G(2d,p)
 ****
 36  38  39  40  41 0
 6-311+G(2d,p)
 ****
 1  2  3  4  5  16  17  18  19  20  21  22  23  24  25 0
 3-21G
 ****
 27  28  30  31  32  35  37  42  43  44  45  46  47 0
 3-21G
 ****
 48  49 0
 3-21G
 ****


