%nproc=1
%NoSave
%Mem=1900MB
#P OB98/GEN NMR

erre ene a

0 1
  C      -85.704    -342.642     159.731
  O      -85.858    -343.184     161.026
  H      -85.565    -341.560     159.790
  H      -84.822    -343.087     159.263
  H      -86.581    -342.873     159.118
  P      -87.085    -342.630     161.900
  C      -87.797    -344.777     163.168
  O      -87.144    -343.515     163.240
  C      -87.362    -345.655     164.336
  O      -86.047    -346.198     164.035
  C      -87.281    -344.935     165.691
  O      -88.129    -345.576     166.647
  C      -85.837    -345.114     166.132
  O      -85.703    -345.388     167.528
  C      -85.351    -346.285     165.286
  N      -80.833    -347.267     167.432
  C      -82.067    -347.759     167.679
  N      -83.211    -347.540     167.003
  C      -82.993    -346.732     165.949
  C      -81.788    -346.170     165.556
  C      -80.672    -346.453     166.361
  N      -79.428    -345.906     166.138
  N      -81.961    -345.391     164.429
  C      -83.250    -345.443     164.173
  N      -83.918    -346.225     165.079
  O      -88.371    -343.110     161.073
  O      -87.088    -341.153     162.119
  H      -86.083    -346.277     167.677
  H      -88.990    -342.366     160.972
  H      -82.146    -348.416     168.542
  H      -83.758    -344.899     163.387
  H      -85.592    -347.254     165.742
  H      -85.278    -344.198     165.905
  H      -87.539    -343.872     165.617
  H      -88.050    -346.509     164.402
  H      -87.532    -345.272     162.229
  H      -78.713    -346.071     166.832
  H      -79.323    -345.215     165.409
  H      -88.878    -344.617     163.185
  P      -88.996    -344.611     167.605
  C      -90.410    -343.842     165.561
  O      -90.407    -344.365     166.881
  O      -88.254    -343.203     167.456
  O      -89.059    -345.070     169.022
  H      -88.392    -342.664     168.262
  H      -91.419    -343.737     165.221
  H      -89.883    -344.510     164.912
  H      -89.930    -342.886     165.555

 6  7  8  9  10  11  12  13  14  15  25  28  32  33  34  35 0
 6-311+G(2d,p)
 ****
 36  39  40 0
 6-311+G(2d,p)
 ****
 1  2  3  4  5  16  17  18  19  20  21  22  23  24 0
 3-21G
 ****
 26  27  29  30  31  37  38  41  42  43  44  45  46  47  48 0
 3-21G
 ****


