%nproc=1
%NoSave
%Mem=1900MB
#P OB98/GEN NMR

erre ene a

0 1
  C       22.088     -27.805     -95.313
  O       21.008     -27.513     -96.202
  P       21.232     -27.923     -97.738
  C       22.135     -25.654     -98.608
  O       22.423     -27.012     -98.312
  C       23.129     -25.090     -99.629
  O       24.493     -25.162     -99.113
  C       23.118     -25.831    -100.975
  O       23.371     -24.849    -101.988
  C       24.302     -26.773    -100.828
  O       24.743     -27.315    -102.062
  C       25.279     -25.852    -100.108
  N       30.320     -26.598    -100.304
  C       29.488     -25.850    -101.061
  N       28.150     -25.707    -100.947
  C       27.686     -26.435     -99.917
  C       28.410     -27.246     -99.058
  C       29.796     -27.316     -99.282
  N       30.649     -28.091     -98.532
  N       27.571     -27.854     -98.136
  C       26.360     -27.465     -98.490
  N       26.388     -26.548     -99.501
  O       19.927     -27.357     -98.470
  O       21.410     -29.390     -97.945
  H       25.470     -27.950    -101.904
  H       19.279     -28.071     -98.612
  H       29.958     -25.296    -101.869
  H       25.436     -27.814     -98.049
  H       25.702     -25.093    -100.780
  H       24.017     -27.613    -100.183
  H       22.172     -26.334    -101.191
  H       22.896     -24.029     -99.786
  H       22.179     -25.054     -97.697
  H       31.628     -28.079     -98.772
  H       30.296     -28.649     -97.769
  H       21.106     -25.580     -98.975
  P       22.131     -24.038    -102.606
  C       22.374     -25.253    -104.851
  O       21.538     -25.011    -103.736
  O       22.905     -22.957    -103.500
  O       21.172     -23.450    -101.627
  H       23.574     -23.381    -104.065
  H       21.889     -25.988    -105.499
  H       23.338     -25.650    -104.524
  H       22.521     -24.328    -105.415
  H       21.830     -27.491     -94.323
  H       22.966     -27.284     -95.635
  H       22.277     -28.858     -95.315

 3  4  5  6  7  8  9  10  11  12  22  25  29  30  31  32 0
 6-311+G(2d,p)
 ****
 33  36  37 0
 6-311+G(2d,p)
 ****
 1  2  13  14  15  16  17  18  19  20  21  23  24  26 0
 3-21G
 ****
 27  28  34  35  38  39  40  41  42  43  44  45  46  47  48 0
 3-21G
 ****


