%nproc=1
%NoSave
%Mem=1900MB
#P OB98/GEN NMR

erre ene a

0 1
  C      173.360      48.950     -88.654
  O      173.143      50.362     -88.698
  P      172.074      50.894     -89.769
  C      169.570      50.208     -89.857
  O      170.617      50.808     -89.107
  C      168.289      50.154     -89.026
  O      168.472      49.403     -87.806
  C      167.797      51.527     -88.578
  O      167.197      52.227     -89.654
  C      166.842      51.140     -87.458
  O      165.584      50.705     -88.000
  C      167.568      49.947     -86.813
  N      167.196      51.437     -81.933
  C      166.259      51.160     -82.866
  N      166.439      50.772     -84.147
  C      167.748      50.663     -84.429
  C      168.817      50.911     -83.582
  C      168.502      51.318     -82.276
  N      169.456      51.617     -81.332
  N      170.016      50.695     -84.233
  C      169.675      50.349     -85.459
  N      168.316      50.306     -85.623
  O      172.059      49.741     -90.879
  O      172.425      52.222     -90.357
  H      165.116      50.213     -87.293
  H      172.493      50.056     -91.693
  H      165.227      51.267     -82.543
  H      170.374      50.126     -86.257
  H      166.876      49.143     -86.529
  H      166.632      51.963     -86.768
  H      168.634      52.114     -88.173
  H      167.513      49.660     -89.625
  H      169.853      49.197     -90.164
  H      169.147      51.979     -80.442
  H      170.430      51.617     -81.600
  H      169.419      50.784     -90.777
  P      168.072      53.346     -90.402
  C      169.780      53.065     -92.304
  O      168.557      52.607     -91.748
  O      169.399      53.363     -89.513
  O      167.392      54.657     -90.592
  H      169.713      52.463     -89.312
  H      170.007      52.459     -93.185
  H      170.590      52.957     -91.577
  H      169.684      54.109     -92.604
  H      174.090      48.724     -87.905
  H      173.712      48.613     -89.607
  H      172.441      48.455     -88.418

 3  4  5  6  7  8  9  10  11  12  22  25  29  30  31  32 0
 6-311+G(2d,p)
 ****
 33  36  37 0
 6-311+G(2d,p)
 ****
 1  2  13  14  15  16  17  18  19  20  21  23  24  26 0
 3-21G
 ****
 27  28  34  35  38  39  40  41  42  43  44  45  46  47  48 0
 3-21G
 ****


