%nproc=1
%NoSave
%Mem=1900MB
#P OB98/GEN NMR

erre ene a

0 1
  C     -281.977     161.610     -46.460
  O     -280.849     160.796     -46.753
  P     -279.522     161.028     -45.881
  C     -278.357     162.997     -47.105
  O     -279.182     162.589     -46.019
  C     -277.576     164.255     -46.741
  O     -278.490     165.327     -46.450
  C     -276.698     164.121     -45.505
  O     -275.466     163.479     -45.797
  C     -276.483     165.582     -45.139
  O     -275.428     166.134     -45.948
  C     -277.833     166.217     -45.514
  N     -279.424     169.528     -42.023
  C     -278.511     169.689     -43.045
  N     -277.962     170.918     -43.174
  N     -278.164     168.734     -43.868
  C     -278.822     167.573     -43.647
  C     -279.745     167.288     -42.665
  C     -280.082     168.338     -41.730
  O     -280.835     168.234     -40.761
  N     -280.205     165.997     -42.770
  C     -279.590     165.517     -43.831
  N     -278.717     166.424     -44.381
  O     -278.385     160.324     -46.760
  O     -279.572     160.479     -44.495
  H     -275.430     167.098     -45.800
  H     -277.642     160.050     -46.186
  H     -279.667     170.300     -41.430
  H     -279.744     164.527     -44.232
  H     -277.694     167.176     -46.023
  H     -276.189     165.722     -44.093
  H     -278.285     171.722     -42.657
  H     -277.234     163.613     -44.695
  H     -277.319     171.066     -43.941
  H     -276.976     164.548     -47.612
  H     -278.985     163.208     -47.977
  H     -277.673     162.177     -47.355
  P     -274.891     162.482     -44.675
  C     -273.797     164.397     -43.302
  O     -274.769     163.368     -43.346
  O     -273.374     162.252     -45.129
  O     -275.646     161.200     -44.547
  H     -273.051     161.392     -44.800
  H     -273.684     164.885     -44.275
  H     -272.835     163.976     -42.991
  H     -274.109     165.147     -42.570
  H     -282.784     161.349     -47.112
  H     -281.721     162.639     -46.603
  H     -282.275     161.454     -45.444

 3  4  5  6  7  8  9  10  11  12  23  26  30  31  33  0
 6-311+G(2d,p)
 ****
 35  36  37  38 0
 6-311+G(2d,p)
 ****
 1  2  13  14  15  16  17  18  19  20  21  22  24  25  27  28  29 0
 3-21G
 ****
 32  34  39  40  41  42  43  44  45  46  47  48  49 0
 3-21G
 ****


