%nproc=1
%NoSave
%Mem=1900MB
#P OB98/GEN NMR

erre ene a

0 1
  C      155.132       6.110    -183.816
  O      155.790       6.853    -184.822
  H      155.887       5.691    -183.143
  H      154.560       5.289    -184.255
  H      154.471       6.758    -183.233
  P      154.911       7.522    -185.983
  C      155.113       9.784    -187.214
  O      155.809       8.684    -186.634
  C      156.107      10.875    -187.634
  O      156.784      11.339    -186.440
  C      157.167      10.358    -188.619
  O      157.265      11.148    -189.805
  C      158.415      10.227    -187.753
  O      159.635      10.332    -188.458
  C      158.204      11.297    -186.676
  N      158.928      11.036    -185.433
  C      160.295      11.299    -185.424
  O      160.938      11.754    -186.371
  N      160.941      11.023    -184.244
  C      160.372      10.521    -183.113
  O      161.003      10.300    -182.083
  C      158.929      10.244    -183.188
  C      158.283      10.509    -184.329
  O      153.533       7.943    -185.590
  O      154.877       6.409    -187.135
  H      159.602      11.156    -188.990
  H      154.015       5.951    -187.122
  H      161.931      11.219    -184.221
  H      158.447       9.835    -182.313
  H      157.217      10.319    -184.422
  H      158.517      12.276    -187.043
  H      158.402       9.236    -187.281
  H      156.895       9.367    -189.002
  H      155.548      11.722    -188.048
  H      154.414      10.172    -186.466
  H      154.548       9.442    -188.088
  P      156.633      10.753    -191.217
  C      156.013      12.039    -193.418
  O      156.677      12.045    -192.161
  O      155.349       9.997    -191.160
  O      157.748       9.777    -191.860
  H      157.265       9.121    -192.404
  H      156.154      12.983    -193.901
  H      154.967      11.868    -193.268
  H      156.417      11.261    -194.031

 6  7  8  9  10  11  12  13  14  15  16  26  31  32  33  34  35 0
 6-311+G(2d,p)
 ****
 36  37 0
 6-311+G(2d,p)
 ****
 1  2  3  4  5  17  18  19  20  21  22  23  24  25 0
 3-21G
 ****
 27  28  29  30  38  39  40  41  42  43  44  45 0
 3-21G
 ****


