%nproc=1
%NoSave
%Mem=1900MB
#P OB98/GEN NMR

erre ene a

0 1
  C       55.092     740.837     393.927
  O       54.548     740.981     395.226
  H       56.164     740.650     394.016
  H       54.935     741.749     393.350
  H       54.626     739.985     393.414
  P       52.968     741.238     395.320
  C       51.520     741.435     397.474
  O       52.500     740.693     396.764
  C       50.994     740.599     398.634
  O       50.226     739.489     398.133
  C       52.084     739.970     399.489
  O       52.657     740.903     400.406
  C       51.309     738.853     400.172
  O       50.608     739.326     401.326
  C       50.332     738.407     399.087
  N       50.478     733.315     399.456
  C       49.913     734.254     400.225
  N       49.903     735.602     400.057
  C       50.554     735.930     398.933
  C       51.176     735.077     398.034
  C       51.134     733.704     398.324
  N       51.737     732.752     397.552
  N       51.772     735.805     397.017
  C       51.494     737.060     397.279
  N       50.764     737.190     398.428
  O       52.362     740.168     394.296
  O       52.533     742.627     394.998
  H       49.856     739.858     400.995
  H       52.154     740.604     393.447
  H       49.399     733.892     401.119
  H       51.824     737.909     396.681
  H       49.327     738.219     399.483
  H       51.997     738.057     400.495
  H       52.873     739.525     398.850
  H       50.330     741.222     399.256
  H       50.695     741.682     396.804
  H       51.975     742.367     397.839
  H       51.710     731.792     397.861
  H       52.313     733.042     396.778
  P       54.160     740.631     400.890
  C       56.135     742.128     401.723
  O       54.842     742.060     401.141
  O       54.902     740.096     399.568
  O       54.292     739.680     402.023
  H       55.571     739.422     399.818
  H       56.431     743.152     401.816
  H       56.834     741.610     401.100
  H       56.115     741.674     402.691

 6  7  8  9  10  11  12  13  14  15  25  28  32  33  34  35 0
 6-311+G(2d,p)
 ****
 36  37  40 0
 6-311+G(2d,p)
 ****
 1  2  3  4  5  16  17  18  19  20  21  22  23  24 0
 3-21G
 ****
 26  27  29  30  31  38  39 41  42  43  44  45  46  47  48 0
 3-21G
 ****


