%nproc=1
%NoSave
%Mem=1900MB
#P OB98/GEN NMR

erre ene a

0 1
  C      982.175    -899.320     -55.109
  O      981.763    -898.060     -54.619
  H      982.893    -899.760     -54.413
  H      982.668    -899.180     -56.081
  H      981.321    -900.000     -55.220
  P      980.441    -897.410     -55.260
  C      981.138    -894.940     -54.876
  O      980.238    -895.990     -54.548
  C      981.679    -894.280     -53.608
  O      982.598    -895.220     -52.954
  C      982.457    -892.970     -53.856
  O      982.191    -892.060     -52.780
  C      983.905    -893.420     -53.762
  O      984.774    -892.340     -53.437
  C      983.805    -894.490     -52.679
  N      987.883    -895.680     -50.005
  C      986.777    -894.910     -49.672
  N      986.786    -894.320     -48.452
  N      985.757    -894.730     -50.455
  C      985.874    -895.410     -51.641
  C      986.905    -896.190     -52.099
  C      988.038    -896.350     -51.213
  O      989.065    -896.990     -51.455
  N      986.660    -896.630     -53.376
  C      985.492    -896.090     -53.695
  N      984.977    -895.340     -52.677
  O      979.276    -898.310     -54.636
  O      980.400    -897.400     -56.751
  H      984.520    -892.000     -52.564
  H      979.042    -899.040     -55.256
  H      988.653    -895.770     -49.371
  H      984.997    -896.210     -54.649
  H      983.716    -894.060     -51.671
  H      984.220    -893.850     -54.723
  H      987.524    -894.440     -47.776
  H      982.217    -892.490     -54.814
  H      985.964    -893.790     -48.172
  H      980.853    -894.110     -52.915
  H      980.605    -894.180     -55.464
  H      981.950    -895.340     -55.480
  P      981.331    -890.750     -53.087
  C      982.664    -889.020     -51.668
  O      981.461    -889.740     -51.836
  O      979.833    -891.280     -52.991
  O      981.617    -890.140     -54.425
  H      979.269    -890.790     -53.633
  H      982.590    -888.400     -50.799
  H      982.837    -888.409     -52.529
  H      983.476    -889.706     -51.548

 6  7  8  9  10  11  12  13  14  15  26  29  33  34 0
 6-311+G(2d,p)
 ****
 36  38  39  40  41 0
 6-311+G(2d,p)
 ****
 1  2  3  4  5  16  17  18  19  20  21  22  23  24  25 0
 3-21G
 ****
 27  28  30  31  32  35  37  42  43  44  45  46  47 0
 3-21G
 ****
 48  49 0
 3-21G
 ****


