%nproc=1
%NoSave
%Mem=1900MB
#P OB98/GEN NMR

erre ene a

0 1
  C     -213.672    -340.238    -274.948
  O     -212.680    -339.776    -274.029
  P     -211.286    -340.575    -273.985
  C     -210.022    -338.483    -273.055
  O     -210.393    -339.837    -272.871
  C     -210.951    -337.550    -272.268
  O     -210.937    -337.918    -270.856
  C     -210.588    -336.065    -272.366
  O     -211.825    -335.336    -272.398
  C     -209.859    -335.801    -271.062
  O     -209.864    -334.428    -270.711
  C     -210.638    -336.718    -270.113
  N     -209.905    -337.017    -268.884
  C     -210.218    -336.253    -267.765
  O     -211.006    -335.310    -267.798
  N     -209.551    -336.579    -266.614
  C     -208.572    -337.523    -266.497
  O     -208.007    -337.776    -265.439
  C     -208.206    -338.221    -267.739
  C     -208.879    -337.937    -268.859
  O     -210.629    -340.139    -275.373
  O     -211.461    -342.044    -273.797
  H     -210.812    -339.215    -275.619
  H     -209.559    -334.332    -269.787
  H     -209.785    -336.059    -265.784
  H     -207.392    -338.934    -267.699
  H     -208.620    -338.416    -269.793
  H     -211.597    -336.261    -269.842
  H     -208.816    -336.134    -271.147
  H     -209.997    -335.828    -273.253
  H     -211.974    -337.706    -272.631
  H     -210.080    -338.222    -274.117
  H     -208.979    -338.350    -272.752
  P     -212.395    -334.864    -273.828
  C     -214.946    -335.324    -273.478
  O     -213.905    -334.384    -273.598
  O     -212.575    -336.290    -274.540
  O     -211.501    -333.946    -274.591
  H     -213.022    -336.942    -273.977
  H     -215.838    -334.816    -273.093
  H     -214.680    -336.124    -272.781
  H     -215.181    -335.749    -274.456
  H     -214.543    -339.620    -274.873
  H     -213.931    -341.250    -274.714
  H     -213.285    -340.190    -275.944

 3  4  5  6  7  8  9  10  11  12  13  24  28  29  30  31  32 0
 6-311+G(2d,p)
 ****
 33  34 0
 6-311+G(2d,p)
 ****
 1  2  14  15  16  17  18  19  20  21  22  23  25  26  27 0
 3-21G
 ****
 35  36  37  38  39  40  41  42  43  44  45 0
 3-21G
 ****


