%nproc=1
%NoSave
%Mem=1900MB
#P OB98/GEN NMR

erre ene a

0 1
  C     -134.980      15.554      45.894
  O     -134.533      15.178      47.182
  H     -135.978      15.141      45.734
  H     -134.305      15.157      45.131
  H     -135.031      16.644      45.814
  P     -133.085      15.707      47.625
  C     -132.054      13.626      46.453
  O     -132.032      15.040      46.616
  C     -130.646      13.122      46.155
  O     -130.294      13.435      44.787
  C     -129.564      13.770      47.010
  O     -129.503      13.217      48.312
  C     -128.325      13.493      46.174
  O     -127.811      12.178      46.416
  C     -128.857      13.601      44.740
  N     -125.075      16.338      42.678
  C     -125.127      15.065      43.123
  N     -126.180      14.404      43.650
  C     -127.271      15.188      43.664
  C     -127.370      16.503      43.240
  C     -126.201      17.085      42.723
  N     -126.141      18.390      42.291
  N     -128.646      16.986      43.451
  C     -129.309      15.980      43.986
  N     -128.521      14.871      44.129
  O     -132.827      14.941      49.007
  O     -132.971      17.187      47.778
  H     -128.575      11.572      46.375
  H     -133.019      15.542      49.752
  H     -124.197      14.506      43.060
  H     -130.349      16.007      44.288
  H     -128.460      12.811      44.089
  H     -127.535      14.207      46.404
  H     -129.722      14.855      47.059
  H     -130.632      12.031      46.270
  H     -132.715      13.369      45.619
  H     -132.442      13.170      47.369
  H     -125.254      18.763      41.996
  H     -126.946      18.989      42.426
  P     -129.309      14.228      49.541
  C     -126.710      14.337      49.351
  O     -127.949      15.034      49.286
  O     -128.958      13.269      50.775
  O     -130.493      15.090      49.828
  H     -129.348      13.627      51.595
  H     -125.907      15.018      49.158
  H     -126.701      13.557      48.618
  H     -126.591      13.912      50.326

 6  7  8  9  10  11  12  13  14  15  25  28  32  33  34  35 0
 6-311+G(2d,p)
 ****
 36  37  40 0
 6-311+G(2d,p)
 ****
 1  2  3  4  5  16  17  18  19  20  21  22  23  24 0
 3-21G
 ****
 26  27  29  30  31  38  39 41  42  43  44  45  46  47  48 0
 3-21G
 ****


