%nproc=1
%NoSave
%Mem=1900MB
#P OB98/GEN NMR

erre ene a

0 1
  C      182.248    -130.961     105.532
  O      182.736    -131.380     106.813
  P      181.906    -130.945     108.112
  C      183.507    -128.945     108.561
  O      182.171    -129.385     108.373
  C      183.523    -127.501     109.070
  O      182.893    -126.598     108.134
  C      182.789    -127.310     110.391
  O      183.607    -127.650     111.503
  C      182.541    -125.809     110.374
  O      183.735    -125.110     110.778
  C      182.242    -125.548     108.893
  N      178.365    -122.701     107.326
  C      179.695    -122.373     107.502
  N      180.046    -121.101     107.212
  N      180.600    -123.216     107.926
  C      180.109    -124.456     108.160
  C      178.814    -124.902     108.024
  C      177.820    -123.956     107.569
  O      176.624    -124.185     107.407
  N      178.703    -126.224     108.363
  C      179.930    -126.586     108.685
  N      180.819    -125.543     108.594
  O      182.719    -131.644     109.302
  O      180.475    -131.369     108.097
  H      183.601    -124.171     110.545
  H      182.118    -131.830     110.049
  H      177.708    -122.012     107.001
  H      180.223    -127.583     108.988
  H      182.647    -124.589     108.548
  H      181.750    -125.510     111.067
  H      179.410    -120.415     106.834
  H      181.835    -127.851     110.398
  H      181.023    -120.851     107.303
  H      184.571    -127.194     109.195
  H      184.067    -129.014     107.625
  H      184.010    -129.621     109.258
  P      183.056    -128.756     112.525
  C      181.696    -126.963     113.819
  O      181.678    -128.180     113.100
  O      184.073    -128.638     113.757
  O      183.009    -130.143     111.979
  H      184.177    -129.506     114.188
  H      180.666    -126.644     113.990
  H      182.216    -126.186     113.255
  H      182.184    -127.107     114.787
  H      182.901    -131.324     104.766
  H      182.214    -129.892     105.495
  H      181.265    -131.355     105.379

 3  4  5  6  7  8  9  10  11  12  23  26  30  31 0
 6-311+G(2d,p)
 ****
 33  35  36  37  38 0
 6-311+G(2d,p)
 ****
 1  2  13  14  15  16  17  18  19  20  21  22  24  25 0
 3-21G
 ****
 27  28  29  32  34  39  40  41  42  43  44  45  46  47  48  49 0
 3-21G
 ****


