%nproc=1
%NoSave
%Mem=1900MB
#P OB98/GEN NMR

erre ene a

0 1
  C      178.597       4.621    1067.749
  O      179.196       3.354    1067.932
  H      177.855       4.776    1068.540
  H      178.102       4.665    1066.781
  H      179.358       5.401    1067.816
  P      180.239       2.881    1066.803
  C      181.028       0.926    1068.344
  O      180.441       1.320    1067.110
  C      181.363      -0.566    1068.319
  O      182.209      -0.879    1067.187
  C      182.141      -1.062    1069.551
  O      181.314      -1.255    1070.682
  C      182.667      -2.379    1069.006
  O      181.599      -3.348    1068.949
  C      183.106      -1.965    1067.576
  N      184.503      -1.523    1067.514
  C      185.468      -2.536    1067.403
  O      185.141      -3.720    1067.371
  N      186.797      -2.170    1067.371
  C      187.137      -0.925    1067.422
  N      188.464      -0.638    1067.391
  C      186.144       0.180    1067.512
  C      184.861      -0.191    1067.562
  O      181.623       3.518    1067.296
  O      179.870       3.200    1065.396
  H      181.923      -4.093    1068.428
  H      182.374       3.166    1066.748
  H      186.476       1.212    1067.562
  H      184.092       0.563    1067.625
  H      182.943      -2.778    1066.865
  H      183.459      -2.820    1069.601
  H      182.986      -0.410    1069.775
  H      180.436      -1.113    1068.182
  H      189.109      -1.421    1067.384
  H      180.308       1.135    1069.151
  H      188.824       0.296    1067.565
  H      181.942       1.503    1068.520
  P      182.057      -1.430    1072.100
  C      179.722      -1.478    1073.234
  O      181.003      -2.095    1073.101
  O      182.195       0.075    1072.648
  O      183.387      -2.121    1072.028
  H      183.031       0.188    1073.149
  H      179.130      -2.032    1073.933
  H      179.232      -1.465    1072.283
  H      179.844      -0.475    1073.586

 6  7  8  9  10  11  12  13  14  15  16  26  30  31  32  33  35 0
 6-311+G(2d,p)
 ****
 37  38 0
 6-311+G(2d,p)
 ****
 1  2  3  4  5  17  18  19  20  21  22  23  24  25 0
 3-21G
 ****
 27  28  29  34  36  39  40  41  42  43  44  45  46 0
 3-21G
 ****


