%nproc=1
%NoSave
%Mem=1900MB
#P OB98/GEN NMR

erre ene a

0 1
  C     -508.544     776.400    -579.845
  O     -508.147     776.491    -578.497
  H     -508.333     775.390    -580.205
  H     -507.980     777.115    -580.448
  H     -509.616     776.595    -579.959
  P     -508.725     777.678    -577.597
  C     -509.714     776.407    -575.584
  O     -509.991     777.104    -576.789
  C     -510.768     776.682    -574.507
  O     -510.797     778.098    -574.199
  C     -512.181     776.329    -574.969
  O     -512.540     774.964    -574.813
  C     -513.035     777.221    -574.082
  O     -513.287     776.594    -572.810
  C     -512.156     778.463    -573.905
  N     -515.846     781.764    -575.200
  C     -515.891     780.714    -574.298
  N     -517.078     780.487    -573.711
  N     -514.861     779.959    -574.018
  C     -513.755     780.242    -574.749
  C     -513.592     781.248    -575.677
  C     -514.724     782.118    -575.940
  O     -514.735     783.055    -576.733
  N     -512.331     781.238    -576.216
  C     -511.757     780.187    -575.666
  N     -512.575     779.567    -574.749
  O     -509.419     778.656    -578.665
  O     -507.718     778.414    -576.768
  H     -513.764     775.759    -572.971
  H     -509.435     779.567    -578.318
  H     -516.654     782.333    -575.352
  H     -510.745     779.842    -575.876
  H     -512.178     778.825    -572.870
  H     -514.015     777.425    -574.530
  H     -517.924     780.963    -573.983
  H     -512.331     776.625    -576.008
  H     -517.227     779.576    -573.261
  H     -510.498     776.153    -573.586
  H     -508.734     776.739    -575.241
  H     -509.642     775.330    -575.776
  P     -513.760     774.354    -575.653
  C     -512.203     773.396    -577.504
  O     -513.280     774.249    -577.180
  O     -514.813     775.565    -575.667
  O     -514.351     773.112    -575.088
  H     -515.472     775.441    -574.962
  H     -512.014     773.444    -578.556
  H     -512.450     772.391    -577.232
  H     -511.329     773.706    -576.970

 6  7  8  9  10  11  12  13  14  15  26  29  33  34 0
 6-311+G(2d,p)
 ****
 36  38  39  40  41 0
 6-311+G(2d,p)
 ****
 1  2  3  4  5  16  17  18  19  20  21  22  23  24  25 0
 3-21G
 ****
 27  28  30  31  32  35  37  42  43  44  45  46  47 0
 3-21G
 ****
 48  49 0
 3-21G
 ****


