%nproc=1
%NoSave
%Mem=1900MB
#P OB98/GEN NMR

erre ene a

0 1
  C      -18.869    -893.160    -245.717
  O      -17.886    -894.090    -245.219
  P      -17.008    -893.640    -243.947
  C      -18.616    -894.740    -242.218
  O      -17.982    -893.550    -242.679
  C      -17.875    -895.310    -240.998
  O      -17.992    -894.440    -239.853
  C      -18.381    -896.680    -240.565
  O      -17.816    -897.730    -241.342
  C      -17.847    -896.740    -239.146
  O      -16.449    -897.100    -239.156
  C      -18.009    -895.280    -238.665
  N      -20.139    -895.180    -234.074
  C      -18.830    -895.440    -234.445
  N      -17.963    -895.690    -233.440
  N      -18.410    -895.440    -235.688
  C      -19.388    -895.150    -236.579
  C      -20.729    -894.870    -236.324
  C      -21.178    -894.890    -234.964
  O      -22.313    -894.700    -234.564
  N      -21.401    -894.640    -237.492
  C      -20.481    -894.740    -238.434
  N      -19.256    -895.060    -237.938
  O      -16.680    -892.100    -244.259
  O      -15.759    -894.440    -243.759
  H      -16.152    -897.080    -238.229
  H      -15.848    -891.850    -243.840
  H      -20.409    -895.200    -233.102
  H      -20.670    -894.590    -239.506
  H      -17.188    -894.950    -238.011
  H      -18.363    -897.480    -238.529
  H      -18.193    -895.660    -232.466
  H      -19.478    -896.710    -240.553
  H      -16.985    -895.850    -233.684
  H      -16.805    -895.390    -241.267
  H      -18.647    -895.480    -243.017
  H      -19.663    -894.510    -241.972
  P      -18.811    -898.680    -242.155
  C      -18.612    -897.590    -244.502
  O      -19.403    -897.800    -243.336
  O      -20.040    -898.860    -241.138
  O      -18.239    -900.000    -242.541
  H      -20.462    -899.730    -241.261
  H      -19.239    -897.100    -245.273
  H      -18.248    -898.540    -244.897
  H      -17.773    -896.930    -244.263
  H      -19.373    -893.590    -246.558
  H      -18.384    -892.255    -246.017
  H      -19.580    -892.946    -244.946

 3  4  5  6  7  8  9  10  11  12  23  26  30  31 0
 6-311+G(2d,p)
 ****
 33  35  36  37  38 0
 6-311+G(2d,p)
 ****
 1  2  13  14  15  16  17  18  19  20  21  22  24  25 0
 3-21G
 ****
 27  28  29  32  34  39  40  41  42  43  44  45  46  47  48  49 0
 3-21G
 ****


