%nproc=1
%NoSave
%Mem=1900MB
#P OB98/GEN NMR

erre ene a

0 1
  C      524.919     541.137    -215.759
  O      526.045     541.668    -216.431
  H      524.842     541.613    -214.780
  H      525.034     540.060    -215.623
  H      524.007     541.348    -216.326
  P      526.351     541.074    -217.891
  C      527.195     538.721    -217.205
  O      527.534     540.007    -217.702
  C      528.432     537.836    -217.128
  O      528.986     537.609    -218.441
  C      529.564     538.406    -216.272
  O      529.348     538.139    -214.899
  C      530.766     537.664    -216.836
  O      530.876     536.335    -216.285
  C      530.435     537.604    -218.335
  N      534.065     538.921    -221.591
  C      533.752     537.687    -221.053
  N      534.567     536.659    -221.396
  N      532.746     537.481    -220.245
  C      532.046     538.605    -219.963
  C      532.245     539.880    -220.449
  C      533.347     540.090    -221.364
  O      533.639     541.138    -221.923
  N      531.315     540.750    -219.950
  C      530.579     540.015    -219.139
  N      530.993     538.710    -219.103
  O      527.072     542.294    -218.644
  O      525.160     540.591    -218.648
  H      530.069     535.834    -216.503
  H      526.867     542.243    -219.596
  H      534.850     539.012    -222.218
  H      529.738     540.382    -218.565
  H      530.795     536.682    -218.801
  H      531.701     538.176    -216.606
  H      535.510     536.814    -221.717
  H      529.682     539.483    -216.456
  H      534.354     535.759    -220.987
  H      528.116     536.862    -216.736
  H      526.465     538.258    -217.876
  H      526.744     538.827    -216.213
  P      528.729     539.317    -213.996
  C      530.771     540.929    -214.058
  O      529.968     540.043    -213.284
  O      528.025     538.532    -212.800
  O      527.775     540.208    -214.713
  H      527.392     539.111    -212.341
  H      531.551     541.331    -213.445
  H      530.164     541.727    -214.431
  H      531.202     540.395    -214.879

 6  7  8  9  10  11  12  13  14  15  26  29  33  34 0
 6-311+G(2d,p)
 ****
 36  38  39  40  41 0
 6-311+G(2d,p)
 ****
 1  2  3  4  5  16  17  18  19  20  21  22  23  24  25 0
 3-21G
 ****
 27  28  30  31  32  35  37  42  43  44  45  46  47 0
 3-21G
 ****
 48  49 0
 3-21G
 ****


