%nproc=1
%NoSave
%Mem=1900MB
#P OB98/GEN NMR

erre ene a

0 1
  C      -11.851      21.280      11.606
  O      -13.145      21.660      12.083
  P      -14.121      20.475      12.544
  C      -14.132      18.752      14.488
  O      -13.690      20.019      14.020
  C      -13.644      18.520      15.917
  O      -12.215      18.699      16.029
  C      -14.248      19.487      16.927
  O      -15.592      19.144      17.219
  C      -13.283      19.321      18.095
  O      -13.588      18.126      18.835
  C      -11.935      19.153      17.375
  N       -8.305      21.916      19.691
  C       -8.868      20.727      19.998
  N       -9.832      20.059      19.330
  C      -10.206      20.735      18.232
  C       -9.720      21.954      17.790
  C       -8.724      22.557      18.575
  N       -8.161      23.776      18.271
  N      -10.350      22.334      16.622
  C      -11.217      21.373      16.378
  N      -11.159      20.378      17.317
  O      -13.674      19.248      11.621
  O      -15.570      20.793      12.376
  H      -14.427      18.285      19.311
  H      -14.358      19.068      10.951
  H       -8.497      20.249      20.900
  H      -11.903      21.353      15.541
  H      -11.303      18.395      17.850
  H      -13.313      20.157      18.799
  H      -14.201      20.513      16.544
  H      -13.889      17.488      16.198
  H      -13.761      17.957      13.836
  H       -7.511      24.175      18.929
  H       -8.527      24.302      17.491
  H      -15.225      18.718      14.433
  P      -16.751      20.017      16.537
  C      -18.053      19.514      14.382
  O      -16.793      19.475      15.024
  O      -16.036      21.436      16.380
  O      -18.052      20.015      17.263
  H      -15.132      21.349      16.027
  H      -17.934      19.152      13.357
  H      -18.434      20.538      14.356
  H      -18.761      18.865      14.905
  H      -11.301      22.156      11.332
  H      -11.958      20.644      10.752
  H      -11.326      20.756      12.377

 3  4  5  6  7  8  9  10  11  12  22  25  29  30  31  32 0
 6-311+G(2d,p)
 ****
 33  36  37 0
 6-311+G(2d,p)
 ****
 1  2  13  14  15  16  17  18  19  20  21  23  24  26 0
 3-21G
 ****
 27  28  34  35  38  39  40  41  42  43  44  45  46  47  48 0
 3-21G
 ****


