%nproc=1
%NoSave
%Mem=1900MB
#P OB98/GEN NMR

erre ene a

0 1
  C     -472.913     538.500     414.099
  O     -473.868     537.661     413.450
  P     -475.020     536.979     414.330
  C     -474.930     534.547     413.464
  O     -475.654     535.770     413.478
  C     -475.565     533.554     412.492
  O     -475.379     533.954     411.110
  C     -474.969     532.155     412.586
  O     -475.412     531.486     413.751
  C     -475.425     531.543     411.273
  O     -476.774     531.055     411.374
  C     -475.367     532.756     410.310
  N     -474.220     532.725     409.410
  C     -474.254     531.754     408.414
  O     -475.194     530.953     408.347
  N     -473.209     531.694     407.515
  C     -472.229     532.531     407.618
  N     -471.217     532.430     406.708
  C     -472.147     533.565     408.671
  C     -473.163     533.598     409.533
  O     -476.005     537.909     414.941
  O     -474.188     536.192     415.460
  H     -476.730     530.263     411.944
  H     -474.721     536.146     416.275
  H     -471.304     534.246     408.713
  H     -473.194     534.325     410.341
  H     -476.279     532.796     409.699
  H     -474.798     530.690     410.975
  H     -473.866     532.225     412.598
  H     -476.636     533.505     412.701
  H     -471.289     531.710     406.002
  H     -474.902     534.120     414.472
  H     -470.444     533.073     406.676
  H     -473.886     534.757     413.189
  P     -474.348     530.586     414.554
  C     -475.769     528.420     414.329
  O     -475.143     529.354     415.200
  O     -473.987     531.495     415.824
  O     -473.127     530.224     413.776
  H     -473.052     531.355     416.071
  H     -475.984     527.501     414.890
  H     -475.117     528.176     413.483
  H     -476.718     528.837     413.968
  H     -472.218     538.874     413.377
  H     -472.388     537.935     414.841
  H     -473.418     539.320     414.566

 3  4  5  6  7  8  9  10  11  12  13  23  27  28  29  30  32 0
 6-311+G(2d,p)
 ****
 34  35 0
 6-311+G(2d,p)
 ****
 1  2  14  15  16  17  18  19  20  21  22  24  25  26 0
 3-21G
 ****
 31  33  36  37  38  39  40  41  42  43  44  45  46 0
 3-21G
 ****


