%nproc=1
%NoSave
%Mem=1900MB
#P OB98/GEN NMR

erre ene a

0 1
  C      193.602     -35.194      24.576
  O      193.206     -35.152      23.221
  H      194.690     -35.152      24.652
  H      193.179     -34.329      25.094
  H      193.229     -36.105      25.051
  P      193.756     -36.321      22.270
  C      192.254     -38.419      22.515
  O      192.486     -37.200      21.824
  C      191.097     -39.174      21.865
  O      191.023     -40.494      22.459
  C      189.723     -38.500      22.026
  O      189.144     -38.245      20.742
  C      188.872     -39.541      22.738
  O      187.538     -39.614      22.239
  C      189.633     -40.841      22.504
  N      185.973     -43.488      24.861
  C      186.019     -42.925      23.634
  N      187.061     -42.326      23.024
  C      188.154     -42.364      23.805
  C      188.267     -42.923      25.067
  C      187.102     -43.491      25.608
  N      187.040     -44.015      26.880
  N      189.549     -42.759      25.562
  C      190.184     -42.075      24.633
  N      189.376     -41.797      23.561
  O      194.539     -37.282      23.285
  O      194.633     -35.867      21.152
  H      187.159     -38.718      22.321
  H      195.417     -37.498      22.919
  H      185.092     -42.952      23.068
  H      191.203     -41.719      24.701
  H      189.368     -41.308      21.547
  H      188.828     -39.293      23.806
  H      189.772     -37.571      22.603
  H      191.330     -39.311      20.802
  H      191.997     -38.207      23.559
  H      186.137     -44.294      27.228
  H      187.847     -43.921      27.479
  H      193.170     -39.019      22.497
  P      189.418     -36.793      20.105
  C      190.999     -37.516      18.168
  O      189.727     -37.006      18.545
  O      190.845     -36.398      20.713
  O      188.371     -35.782      20.430
  H      190.932     -35.428      20.758
  H      191.048     -37.600      17.102
  H      191.141     -38.481      18.608
  H      191.765     -36.852      18.509

 6  7  8  9  10  11  12  13  14  15  25  28  32  33  34  35 0
 6-311+G(2d,p)
 ****
 36  39  40 0
 6-311+G(2d,p)
 ****
 1  2  3  4  5  16  17  18  19  20  21  22  23  24 0
 3-21G
 ****
 26  27  29  30  31  37  38  41  42  43  44  45  46  47  48 0
 3-21G
 ****


