%nproc=1
%NoSave
%Mem=1900MB
#P OB98/GEN NMR

erre ene a

0 1
  C      -63.723     217.468     334.542
  O      -64.398     217.391     335.801
  P      -65.148     218.708     336.319
  C      -67.303     217.874     337.524
  O      -66.726     218.426     336.342
  C      -68.719     218.414     337.719
  O      -68.719     219.851     337.840
  C      -69.641     218.113     336.552
  O      -70.087     216.773     336.595
  C      -70.751     219.141     336.746
  O      -71.809     218.624     337.570
  C      -70.026     220.311     337.454
  N      -69.942     221.502     336.624
  C      -70.260     222.707     337.256
  O      -70.610     222.718     338.442
  N      -70.201     223.868     336.523
  C      -69.876     223.824     335.270
  N      -69.837     225.001     334.596
  C      -69.560     222.567     334.558
  C      -69.613     221.456     335.292
  O      -64.977     219.731     335.096
  O      -64.589     219.270     337.586
  H      -72.079     217.779     337.156
  H      -64.910     220.648     335.431
  H      -69.307     222.577     333.507
  H      -69.398     220.485     334.851
  H      -70.549     220.579     338.380
  H      -71.209     219.424     335.796
  H      -69.120     218.313     335.602
  H      -69.135     217.983     338.643
  H      -70.064     225.844     335.115
  H      -66.689     218.116     338.392
  H      -69.608     225.081     333.612
  H      -67.307     216.782     337.439
  P      -70.543     216.088     335.221
  C      -68.470     214.581     335.392
  O      -69.196     215.493     334.585
  O      -70.810     217.366     334.286
  O      -71.717     215.176     335.270
  H      -71.194     217.084     333.436
  H      -67.709     214.098     334.772
  H      -69.138     213.809     335.795
  H      -67.977     215.116     336.207
  H      -63.270     216.524     334.322
  H      -62.967     218.224     334.588
  H      -64.427     217.713     333.774

 3  4  5  6  7  8  9  10  11  12  13  21  23  27  28  29  30  32 0
 6-311+G(2d,p)
 ****
 34  35 0
 6-311+G(2d,p)
 ****
 1  2  14  15  16  17  18  19  20  22  24  25  26 0
 3-21G
 ****
 31  33  36  37  38  39  40  41  42  43  44  45  46 0
 3-21G
 ****


