%nproc=1
%NoSave
%Mem=1900MB
#P OB98/GEN NMR

erre ene a

0 1
  C      872.409    -275.829     394.991
  O      872.282    -276.745     393.917
  H      871.693    -275.017     394.843
  H      873.420    -275.415     395.011
  H      872.191    -276.326     395.939
  P      873.242    -278.030     393.957
  C      871.516    -279.866     393.294
  O      872.628    -279.076     392.905
  C      870.491    -279.948     392.156
  O      869.918    -278.615     391.950
  C      871.087    -280.387     390.806
  O      870.063    -281.050     390.061
  C      871.405    -279.046     390.159
  O      871.665    -279.198     388.781
  C      870.153    -278.271     390.565
  N      870.339    -274.374     387.255
  C      870.127    -275.694     387.078
  N      870.080    -276.670     388.012
  C      870.259    -276.159     389.239
  C      870.478    -274.835     389.582
  C      870.520    -273.912     388.522
  N      870.746    -272.573     388.700
  N      870.620    -274.700     390.957
  C      870.489    -275.920     391.432
  N      870.276    -276.837     390.432
  O      872.924    -278.686     395.383
  O      874.696    -277.749     393.785
  H      872.301    -279.927     388.627
  H      873.571    -278.377     396.041
  H      869.978    -276.009     386.046
  H      870.541    -276.202     392.478
  H      869.272    -278.582     389.997
  H      872.298    -278.598     390.599
  H      871.951    -281.046     390.912
  H      869.664    -280.597     392.461
  H      871.056    -279.416     394.177
  H      871.860    -280.879     393.546
  H      870.781    -271.979     387.880
  H      870.900    -272.214     389.636
  P      869.982    -282.655     390.085
  C      867.372    -282.690     390.225
  O      868.544    -283.111     389.549
  O      869.861    -282.956     391.653
  O      871.162    -283.369     389.501
  H      870.241    -283.837     391.855
  H      866.512    -283.088     389.729
  H      867.323    -281.621     390.222
  H      867.396    -283.043     391.235

 6  7  8  9  10  11  12  13  14  15  25  28  32  33  34  35 0
 6-311+G(2d,p)
 ****
 36  37  40 0
 6-311+G(2d,p)
 ****
 1  2  3  4  5  16  17  18  19  20  21  22  23  24 0
 3-21G
 ****
 26  27  29  30  31  38  39 41  42  43  44  45  46  47  48 0
 3-21G
 ****


