%nproc=1
%NoSave
%Mem=1900MB
#P OB98/GEN NMR

erre ene a

0 1
  C      117.261    -180.519     -71.009
  O      116.985    -181.402     -72.083
  P      116.541    -182.900     -71.734
  C      117.736    -184.826     -70.461
  O      117.862    -183.738     -71.367
  C      119.008    -184.993     -69.627
  O      119.295    -183.755     -68.926
  C      118.909    -186.100     -68.573
  O      120.196    -186.718     -68.413
  C      118.604    -185.346     -67.293
  O      118.993    -186.092     -66.142
  C      119.407    -184.064     -67.523
  N      119.729    -181.812     -63.007
  C      120.561    -182.755     -63.578
  N      121.565    -183.219     -62.805
  N      120.427    -183.196     -64.801
  C      119.374    -182.646     -65.456
  C      118.489    -181.694     -65.002
  C      118.644    -181.221     -63.644
  O      117.923    -180.410     -63.067
  N      117.576    -181.355     -65.968
  C      117.874    -182.133     -66.989
  N      118.936    -182.957     -66.717
  O      116.112    -183.488     -73.163
  O      115.421    -183.008     -70.757
  H      119.879    -186.458     -66.330
  H      115.140    -183.541     -73.218
  H      119.868    -181.512     -62.058
  H      117.346    -182.154     -67.935
  H      120.470    -184.212     -67.300
  H      117.529    -185.141     -67.225
  H      121.683    -182.971     -61.832
  H      118.164    -186.875     -68.794
  H      122.163    -183.943     -63.182
  H      119.848    -185.179     -70.307
  H      117.554    -185.740     -71.026
  H      116.874    -184.655     -69.804
  P      120.191    -188.227     -67.865
  C      120.276    -189.288     -65.486
  O      120.190    -188.111     -66.266
  O      121.665    -188.751     -68.207
  O      119.126    -189.091     -68.456
  H      121.665    -189.721     -68.299
  H      121.204    -189.258     -64.908
  H      120.271    -190.193     -66.099
  H      119.431    -189.320     -64.800
  H      117.543    -179.562     -71.397
  H      118.061    -180.914     -70.419
  H      116.387    -180.414     -70.400

 3  4  5  6  7  8  9  10  11  12  23  26  30  31 0
 6-311+G(2d,p)
 ****
 33  35  36  37  38 0
 6-311+G(2d,p)
 ****
 1  2  13  14  15  16  17  18  19  20  21  22  24  25 0
 3-21G
 ****
 27  28  29  32  34  39  40  41  42  43  44  45  46  47  48  49 0
 3-21G
 ****


