%nproc=1
%NoSave
%Mem=1900MB
#P OB98/GEN NMR

erre ene a

0 1
  C     -142.852     114.923     -31.593
  O     -141.898     115.899     -32.018
  P     -140.515     115.345     -32.612
  C     -138.252     114.559     -31.609
  O     -139.640     114.776     -31.395
  C     -137.438     115.225     -30.499
  O     -137.636     116.656     -30.476
  C     -137.815     114.746     -29.103
  O     -137.295     113.451     -28.851
  C     -137.206     115.852     -28.246
  O     -135.791     115.649     -28.094
  C     -137.460     117.099     -29.108
  N     -139.429     121.791     -28.563
  C     -138.225     121.362     -29.002
  N     -137.777     120.094     -29.116
  C     -138.720     119.220     -28.729
  C     -139.992     119.508     -28.262
  C     -140.341     120.867     -28.180
  N     -141.561     121.304     -27.718
  N     -140.674     118.347     -27.959
  C     -139.820     117.377     -28.216
  N     -138.629     117.854     -28.694
  O     -139.741     116.676     -33.049
  O     -140.690     114.407     -33.760
  H     -135.408     115.583     -28.993
  H     -139.718     116.745     -34.021
  H     -137.528     122.141     -29.302
  H     -140.016     116.321     -28.072
  H     -136.610     117.791     -29.096
  H     -137.639     115.905     -27.243
  H     -138.906     114.739     -28.986
  H     -136.376     115.023     -30.687
  H     -137.951     114.962     -32.579
  H     -141.701     122.297     -27.616
  H     -142.215     120.628     -27.348
  H     -138.066     113.481     -31.644
  P     -138.170     112.192     -29.321
  C     -140.557     111.410     -28.781
  O     -139.536     112.346     -28.487
  O     -137.435     110.990     -28.569
  O     -138.324     112.047     -30.796
  H     -137.241     111.210     -27.639
  H     -141.408     111.605     -28.125
  H     -140.199     110.392     -28.607
  H     -140.878     111.521     -29.820
  H     -143.725     115.416     -31.220
  H     -142.425     114.320     -30.819
  H     -143.120     114.302     -32.422

 3  4  5  6  7  8  9  10  11  12  22  25  29  30  31  32 0
 6-311+G(2d,p)
 ****
 33  36  37 0
 6-311+G(2d,p)
 ****
 1  2  13  14  15  16  17  18  19  20  21  23  24  26 0
 3-21G
 ****
 27  28  34  35  38  39  40  41  42  43  44  45  46  47  48 0
 3-21G
 ****


