%nproc=1
%NoSave
%Mem=1900MB
#P OB98/GEN NMR

erre ene a

0 1
  C       40.948    -371.058      98.021
  O       41.117    -372.364      97.516
  H       40.984    -370.353      97.185
  H       41.763    -370.824      98.712
  H       39.989    -370.947      98.534
  P       40.676    -373.604      98.425
  C       38.276    -373.686      97.481
  O       39.085    -373.515      98.637
  C       36.913    -374.289      97.824
  O       36.019    -374.177      96.695
  C       37.002    -375.781      98.147
  O       37.356    -376.092      99.482
  C       35.588    -376.254      97.832
  O       34.718    -376.058      98.960
  C       35.177    -375.344      96.672
  N       32.710    -377.591      92.804
  C       32.204    -377.117      93.999
  N       30.885    -377.318      94.212
  N       32.934    -376.517      94.902
  C       34.251    -376.471      94.594
  C       34.871    -376.920      93.450
  C       34.044    -377.534      92.429
  O       34.444    -377.977      91.358
  N       36.226    -376.698      93.491
  C       36.433    -376.186      94.686
  N       35.262    -376.002      95.383
  O       41.238    -373.224      99.879
  O       41.190    -374.939      97.982
  H       34.773    -375.125      99.232
  H       41.401    -374.034     100.394
  H       32.097    -378.019      92.133
  H       37.404    -375.902      95.084
  H       34.142    -374.992      96.786
  H       35.560    -377.322      97.594
  H       30.309    -377.877      93.599
  H       37.692    -376.278      97.457
  H       30.536    -377.228      95.168
  H       36.464    -373.723      98.649
  H       38.821    -374.354      96.812
  H       38.153    -372.733      96.961
  P       37.503    -377.621      99.938
  C       39.876    -377.942      98.919
  O       38.517    -378.320      98.910
  O       36.080    -378.243      99.555
  O       37.824    -377.819     101.379
  H       35.495    -378.254     100.332
  H       40.407    -378.501      98.177
  H       40.295    -378.141      99.883
  H       39.957    -376.897      98.704

 6  7  8  9  10  11  12  13  14  15  26  29  33  34 0
 6-311+G(2d,p)
 ****
 36  38  39  40  41 0
 6-311+G(2d,p)
 ****
 1  2  3  4  5  16  17  18  19  20  21  22  23  24  25 0
 3-21G
 ****
 27  28  30  31  32  35  37  42  43  44  45  46  47 0
 3-21G
 ****
 48  49 0
 3-21G
 ****


