%nproc=1
%NoSave
%Mem=1900MB
#P OB98/GEN NMR

erre ene a

0 1
  C      452.935     300.444     685.111
  O      451.970     300.159     684.122
  H      452.419     300.792     686.009
  H      453.602     301.237     684.760
  H      453.516     299.556     685.364
  P      452.414     299.333     682.826
  C      453.107     301.562     681.721
  O      452.379     300.350     681.585
  C      453.915     301.858     680.451
  O      454.878     300.791     680.245
  C      453.016     301.888     679.212
  O      453.540     302.733     678.188
  C      453.061     300.446     678.725
  O      452.744     300.311     677.341
  C      454.496     300.056     679.072
  N      454.662     295.395     677.011
  C      454.265     296.589     676.441
  N      453.867     296.533     675.149
  N      454.244     297.727     677.081
  C      454.602     297.621     678.383
  C      454.989     296.496     679.069
  C      455.044     295.244     678.338
  O      455.365     294.158     678.802
  N      455.270     296.777     680.384
  C      455.044     298.070     680.494
  N      454.662     298.634     679.304
  O      451.154     298.388     682.531
  O      453.679     298.539     682.964
  H      451.846     300.666     677.213
  H      451.427     297.615     682.003
  H      454.689     294.554     676.465
  H      455.160     298.643     681.405
  H      455.180     300.343     678.262
  H      452.313     299.876     679.286
  H      453.682     295.653     674.688
  H      451.998     302.194     679.434
  H      453.291     297.312     674.817
  H      454.489     302.781     680.577
  H      453.772     301.438     682.579
  H      452.431     302.390     681.950
  P      453.286     304.312     678.298
  C      451.382     304.525     676.467
  O      452.673     304.858     676.927
  O      454.757     304.932     678.331
  O      452.476     304.729     679.486
  H      454.925     305.366     679.189
  H      451.201     305.011     675.531
  H      450.654     304.847     677.183
  H      451.312     303.465     676.339

 6  7  8  9  10  11  12  13  14  15  26  29  33  34 0
 6-311+G(2d,p)
 ****
 36  38  39  40  41 0
 6-311+G(2d,p)
 ****
 1  2  3  4  5  16  17  18  19  20  21  22  23  24  25 0
 3-21G
 ****
 27  28  30  31  32  35  37  42  43  44  45  46  47 0
 3-21G
 ****
 48  49 0
 3-21G
 ****


