%nproc=1
%NoSave
%Mem=1900MB
#P OB98/GEN NMR

erre ene a

0 1
  C     -109.947      11.175      42.996
  O     -109.566      12.343      42.296
  H     -109.362      10.332      42.621
  H     -111.007      10.971      42.826
  H     -109.756      11.292      44.067
  P     -110.243      13.720      42.758
  C     -112.671      14.524      43.199
  O     -111.832      13.462      42.765
  C     -114.129      14.068      43.262
  O     -114.617      13.856      41.902
  C     -114.351      12.757      44.039
  O     -115.613      12.848      44.709
  C     -114.476      11.725      42.929
  O     -115.158      10.548      43.356
  C     -115.221      12.547      41.877
  N     -117.857      10.002      38.422
  C     -118.240      10.518      39.647
  N     -119.528      10.325      40.008
  N     -117.435      11.164      40.446
  C     -116.187      11.311      39.943
  C     -115.678      10.847      38.751
  C     -116.575      10.108      37.886
  O     -116.286       9.612      36.800
  N     -114.350      11.179      38.616
  C     -114.061      11.844      39.723
  N     -115.140      11.949      40.557
  O     -110.020      14.666      41.483
  O     -109.688      14.323      44.005
  H     -115.132       9.901      42.618
  H     -109.203      15.189      41.589
  H     -118.513       9.503      37.850
  H     -113.091      12.261      39.968
  H     -116.288      12.656      42.110
  H     -113.482      11.432      42.569
  H     -120.217       9.881      39.423
  H     -113.562      12.523      44.762
  H     -119.842      10.733      40.883
  H     -114.731      14.881      43.687
  H     -112.586      15.357      42.493
  H     -112.342      14.862      44.188
  P     -115.614      13.222      46.269
  C     -114.904      12.069      48.492
  O     -114.933      12.012      47.074
  O     -117.160      13.085      46.668
  O     -115.083      14.585      46.572
  H     -117.365      13.675      47.417
  H     -114.420      11.195      48.874
  H     -115.905      12.116      48.868
  H     -114.365      12.940      48.803

 6  7  8  9  10  11  12  13  14  15  26  29  33  34 0
 6-311+G(2d,p)
 ****
 36  38  39  40  41 0
 6-311+G(2d,p)
 ****
 1  2  3  4  5  16  17  18  19  20  21  22  23  24  25 0
 3-21G
 ****
 27  28  30  31  32  35  37  42  43  44  45  46  47 0
 3-21G
 ****
 48  49 0
 3-21G
 ****


