%nproc=1
%NoSave
%Mem=1900MB
#P OB98/GEN NMR

erre ene a

0 1
  C     -312.084     -60.339     303.100
  O     -311.790     -60.731     304.426
  H     -311.182     -59.966     302.604
  H     -312.455     -61.208     302.550
  H     -312.856     -59.564     303.101
  P     -311.130     -59.616     305.370
  C     -308.888     -58.317     305.379
  O     -309.633     -59.392     304.831
  C     -307.554     -58.822     305.914
  O     -306.877     -59.611     304.910
  C     -306.564     -57.726     306.301
  O     -306.867     -57.160     307.569
  C     -305.269     -58.520     306.336
  O     -305.168     -59.231     307.584
  C     -305.453     -59.515     305.180
  N     -300.906     -58.624     302.965
  C     -301.240     -59.007     304.219
  N     -302.466     -59.211     304.740
  C     -303.415     -59.000     303.816
  C     -303.233     -58.609     302.497
  C     -301.906     -58.412     302.080
  N     -301.578     -58.004     300.802
  N     -304.438     -58.505     301.846
  C     -305.343     -58.825     302.749
  N     -304.773     -59.127     303.958
  O     -310.910     -60.383     306.760
  O     -311.936     -58.373     305.551
  H     -305.238     -58.564     308.292
  H     -311.059     -59.756     307.494
  H     -300.405     -59.170     304.897
  H     -306.411     -58.860     302.572
  H     -305.113     -60.519     305.455
  H     -304.378     -57.894     306.245
  H     -306.499     -56.959     305.523
  H     -307.760     -59.478     306.772
  H     -309.453     -57.860     306.198
  H     -300.620     -58.073     300.505
  H     -302.334     -57.856     300.141
  H     -308.724     -57.566     304.596
  P     -306.756     -55.563     307.710
  C     -304.770     -53.925     308.034
  O     -305.227     -55.272     308.102
  O     -307.545     -55.266     309.069
  O     -307.307     -54.787     306.564
  H     -307.889     -54.351     309.061
  H     -303.740     -53.883     308.321
  H     -305.350     -53.318     308.697
  H     -304.877     -53.562     307.033

 6  7  8  9  10  11  12  13  14  15  25  28  32  33  34  35 0
 6-311+G(2d,p)
 ****
 36  39  40 0
 6-311+G(2d,p)
 ****
 1  2  3  4  5  16  17  18  19  20  21  22  23  24 0
 3-21G
 ****
 26  27  29  30  31  37  38  41  42  43  44  45  46  47  48 0
 3-21G
 ****


