%nproc=1
%NoSave
%Mem=1900MB
#P OB98/GEN NMR

erre ene a

0 1
  C        6.845     -79.668      75.522
  O        7.217     -81.025      75.641
  H        6.712     -79.254      76.525
  H        5.902     -79.571      74.977
  H        7.630     -79.102      75.014
  P        7.361     -81.895      74.299
  C        4.885     -82.646      74.435
  O        5.870     -81.940      73.697
  C        3.925     -83.359      73.486
  O        3.206     -82.414      72.667
  C        4.591     -84.306      72.492
  O        5.038     -85.516      73.078
  C        3.441     -84.519      71.521
  O        2.484     -85.425      72.099
  C        2.859     -83.087      71.425
  N        3.369     -82.339      70.278
  C        2.699     -82.521      69.061
  O        1.732     -83.278      68.987
  N        3.164     -81.869      67.945
  C        4.216     -81.117      68.030
  N        4.663     -80.532      66.884
  C        4.942     -80.884      69.293
  C        4.475     -81.521      70.364
  O        8.034     -83.222      74.440
  O        8.094     -80.916      73.267
  H        2.964     -86.245      72.316
  H        8.218     -81.413      72.422
  H        5.820     -80.253      69.307
  H        4.965     -81.413      71.325
  H        1.765     -83.115      71.370
  H        3.757     -84.946      70.564
  H        5.407     -83.803      71.962
  H        3.179     -83.881      74.101
  H        4.167     -80.749      66.031
  H        4.352     -81.929      75.066
  H        5.609     -80.172      66.811
  H        5.359     -83.397      75.074
  P        6.606     -85.858      72.990
  C        6.532     -87.415      70.902
  O        6.923     -86.166      71.448
  O        6.696     -87.293      73.689
  O        7.523     -84.856      73.614
  H        6.916     -87.210      74.637
  H        6.816     -87.458      69.871
  H        5.471     -87.524      70.985
  H        7.014     -88.205      71.438

 6  7  8  9  10  11  12  13  14  15  16  26  30  31  32  33  35 0
 6-311+G(2d,p)
 ****
 37  38 0
 6-311+G(2d,p)
 ****
 1  2  3  4  5  17  18  19  20  21  22  23  24  25 0
 3-21G
 ****
 27  28  29  34  36  39  40  41  42  43  44  45  46 0
 3-21G
 ****


