%nproc=1
%NoSave
%Mem=1900MB
#P OB98/GEN NMR

erre ene a

0 1
  C      370.105     290.533     261.384
  O      369.880     290.438     262.779
  P      370.242     289.048     263.507
  C      367.882     288.139     262.920
  O      369.293     287.948     262.828
  C      367.140     287.011     262.196
  O      367.382     287.091     260.780
  C      367.567     285.610     262.612
  O      366.938     285.192     263.812
  C      367.065     284.795     261.432
  O      365.648     284.567     261.557
  C      367.350     285.733     260.249
  N      369.543     283.136     256.428
  C      368.277     283.155     256.886
  N      367.772     283.874     257.918
  C      368.737     284.589     258.520
  C      370.083     284.637     258.176
  C      370.483     283.871     257.072
  N      371.771     283.869     256.586
  N      370.760     285.484     259.037
  C      369.851     285.944     259.851
  N      368.603     285.444     259.582
  O      369.621     289.228     264.975
  O      371.703     288.725     263.552
  H      365.501     284.200     262.454
  H      370.075     288.635     265.599
  H      367.563     282.527     256.352
  H      370.035     286.651     260.660
  H      366.553     285.706     259.493
  H      367.538     283.812     261.349
  H      368.666     285.523     262.671
  H      366.063     287.151     262.368
  H      367.612     289.091     262.454
  H      371.932     283.450     255.682
  H      372.414     284.573     256.936
  H      367.591     288.166     263.979
  P      367.859     284.393     264.873
  C      366.914     282.155     263.965
  O      368.058     282.934     264.255
  O      366.863     284.171     266.108
  O      369.099     285.126     265.259
  H      367.368     284.071     266.933
  H      367.191     281.342     263.287
  H      366.128     282.746     263.494
  H      366.525     281.709     264.894
  H      369.820     291.506     261.042
  H      369.522     289.792     260.877
  H      371.143     290.372     261.178

 3  4  5  6  7  8  9  10  11  12  22  25  29  30  31  32 0
 6-311+G(2d,p)
 ****
 33  36  37 0
 6-311+G(2d,p)
 ****
 1  2  13  14  15  16  17  18  19  20  21  23  24  26 0
 3-21G
 ****
 27  28  34  35  38  39  40  41  42  43  44  45  46  47  48 0
 3-21G
 ****


