%nproc=1
%NoSave
%Mem=1900MB
#P OB98/GEN NMR

erre ene a

0 1
  C      250.736    -320.934    -617.673
  O      250.506    -319.541    -617.587
  H      251.687    -321.161    -617.186
  H      250.794    -321.235    -618.723
  H      249.937    -321.487    -617.170
  P      249.071    -319.015    -618.088
  C      248.370    -318.606    -615.589
  O      248.081    -319.204    -616.839
  C      247.303    -318.961    -614.557
  O      246.017    -318.479    -615.029
  C      247.169    -320.468    -614.299
  O      246.854    -320.668    -612.921
  C      245.972    -320.860    -615.151
  O      245.355    -322.059    -614.686
  C      245.108    -319.597    -615.052
  N      244.149    -319.485    -616.149
  C      243.106    -320.420    -616.177
  O      243.034    -321.294    -615.306
  N      242.199    -320.379    -617.201
  C      242.354    -319.517    -618.162
  N      241.434    -319.538    -619.165
  C      243.459    -318.535    -618.198
  C      244.306    -318.569    -617.171
  O      248.631    -320.176    -619.099
  O      249.087    -317.646    -618.687
  H      244.524    -322.198    -615.187
  H      248.795    -321.068    -618.756
  H      243.550    -317.848    -619.025
  H      245.141    -317.888    -617.111
  H      244.544    -319.585    -614.107
  H      246.285    -321.023    -616.189
  H      248.078    -321.018    -614.562
  H      247.524    -318.427    -613.625
  H      240.706    -320.239    -619.113
  H      248.429    -317.517    -615.691
  H      241.487    -318.955    -619.987
  H      249.353    -318.964    -615.261
  P      247.951    -321.310    -611.946
  C      248.106    -319.327    -610.284
  O      248.788    -320.135    -611.244
  O      248.767    -322.412    -612.529
  O      247.055    -321.862    -610.733
  H      247.420    -322.733    -610.469
  H      248.777    -318.589    -609.898
  H      247.756    -319.944    -609.483
  H      247.274    -318.843    -610.752

 6  7  8  9  10  11  12  13  14  15  16  26  30  31  32  33  35 0
 6-311+G(2d,p)
 ****
 37  38 0
 6-311+G(2d,p)
 ****
 1  2  3  4  5  17  18  19  20  21  22  23  24  25 0
 3-21G
 ****
 27  28  29  34  36  39  40  41  42  43  44  45  46 0
 3-21G
 ****


