%nproc=1
%NoSave
%Mem=1900MB
#P OB98/GEN NMR

erre ene a

0 1
  C     -124.480     414.668    -198.984
  O     -124.761     413.935    -200.161
  H     -124.132     415.672    -199.241
  H     -125.395     414.750    -198.396
  H     -123.721     414.151    -198.388
  P     -123.530     413.674    -201.156
  C     -122.695     414.828    -203.326
  O     -123.485     414.932    -202.150
  C     -123.382     415.539    -204.488
  O     -124.582     414.830    -204.864
  C     -123.825     416.967    -204.190
  O     -122.747     417.884    -204.284
  C     -124.844     417.186    -205.299
  O     -124.161     417.484    -206.533
  C     -125.519     415.808    -205.390
  N     -130.248     417.694    -204.886
  C     -129.271     417.936    -205.788
  N     -128.045     417.378    -205.870
  C     -127.875     416.468    -204.897
  C     -128.783     416.095    -203.920
  C     -130.023     416.759    -203.930
  N     -130.988     416.549    -202.957
  N     -128.240     415.136    -203.088
  C     -127.018     414.948    -203.543
  N     -126.755     415.724    -204.639
  O     -124.063     412.476    -202.076
  O     -122.238     413.329    -200.491
  H     -124.849     417.717    -207.185
  H     -123.721     411.630    -201.732
  H     -129.504     418.680    -206.542
  H     -126.297     414.270    -203.112
  H     -125.736     415.523    -206.425
  H     -125.527     418.016    -205.096
  H     -124.332     417.036    -203.219
  H     -122.700     415.515    -205.347
  H     -122.556     413.771    -203.580
  H     -131.581     417.361    -202.795
  H     -130.660     416.049    -202.141
  H     -121.715     415.278    -203.131
  P     -122.731     419.125    -203.268
  C     -122.895     421.696    -203.520
  O     -123.084     420.431    -204.137
  O     -121.173     419.300    -202.940
  O     -123.530     418.942    -202.025
  H     -121.034     419.252    -201.975
  H     -123.166     422.471    -204.206
  H     -121.867     421.808    -203.243
  H     -123.509     421.762    -202.646

 6  7  8  9  10  11  12  13  14  15  25  28  32  33  34  35 0
 6-311+G(2d,p)
 ****
 36  39  40 0
 6-311+G(2d,p)
 ****
 1  2  3  4  5  16  17  18  19  20  21  22  23  24 0
 3-21G
 ****
 26  27  29  30  31  37  38  41  42  43  44  45  46  47  48 0
 3-21G
 ****


