%nproc=1
%NoSave
%Mem=1900MB
#P OB98/GEN NMR

erre ene a

0 1
  C      119.187    -319.529      -8.615
  O      118.606    -318.218      -8.623
  P      118.171    -317.588      -7.213
  C      120.379    -316.935      -6.009
  O      119.265    -316.494      -6.776
  C      121.525    -315.909      -6.042
  O      121.832    -315.521      -7.407
  C      121.206    -314.612      -5.280
  O      122.432    -314.084      -4.759
  C      120.698    -313.703      -6.377
  O      120.746    -312.325      -5.981
  C      121.636    -314.090      -7.516
  N      121.766    -310.661     -11.215
  C      122.418    -310.683      -9.992
  N      123.257    -309.654      -9.744
  N      122.263    -311.630      -9.105
  C      121.419    -312.609      -9.515
  C      120.709    -312.701     -10.689
  C      120.871    -311.632     -11.651
  O      120.311    -311.549     -12.745
  N      119.942    -313.837     -10.730
  C      120.184    -314.430      -9.570
  N      121.100    -313.747      -8.823
  O      118.426    -318.802      -6.187
  O      116.748    -317.133      -7.168
  H      121.674    -312.129      -5.720
  H      117.567    -319.163      -5.892
  H      121.909    -309.898     -11.857
  H      119.727    -315.352      -9.240
  H      122.622    -313.608      -7.434
  H      119.658    -313.946      -6.618
  H      123.460    -308.917     -10.403
  H      120.487    -314.728      -4.457
  H      123.780    -309.663      -8.872
  H      122.419    -316.376      -5.622
  H      120.744    -317.895      -6.390
  H      120.050    -317.130      -4.983
  P      122.516    -313.864      -3.177
  C      121.932    -316.200      -2.207
  O      122.942    -315.277      -2.556
  O      120.984    -313.705      -2.731
  O      123.346    -312.696      -2.750
  H      120.919    -313.192      -1.908
  H      121.882    -316.985      -2.971
  H      120.947    -315.719      -2.120
  H      122.177    -316.657      -1.240
  H      119.426    -319.819      -9.617
  H      118.490    -320.226      -8.199
  H      120.079    -319.520      -8.024

 3  4  5  6  7  8  9  10  11  12  23  26  30  31 0
 6-311+G(2d,p)
 ****
 33  35  36  37  38 0
 6-311+G(2d,p)
 ****
 1  2  13  14  15  16  17  18  19  20  21  22  24  25 0
 3-21G
 ****
 27  28  29  32  34  39  40  41  42  43  44  45  46  47  48  49 0
 3-21G
 ****


