%nproc=1
%NoSave
%Mem=1900MB
#P OB98/GEN NMR

erre ene a

0 1
  C     -411.689     603.560      24.415
  O     -411.003     604.294      23.422
  H     -412.255     602.741      23.958
  H     -410.960     603.141      25.113
  H     -412.368     604.218      24.968
  P     -411.899     604.906      22.238
  C     -411.150     603.021      20.621
  O     -412.237     603.687      21.248
  C     -411.516     602.647      19.190
  O     -412.690     601.809      19.179
  C     -411.861     603.832      18.293
  O     -410.694     604.505      17.828
  C     -412.589     603.120      17.158
  O     -411.631     602.544      16.252
  C     -413.348     602.010      17.899
  N     -418.194     600.445      17.227
  C     -417.010     599.895      16.868
  N     -415.766     600.371      17.065
  C     -415.801     601.540      17.731
  C     -416.929     602.215      18.168
  C     -418.174     601.624      17.887
  N     -419.377     602.203      18.250
  N     -416.580     603.370      18.831
  C     -415.260     603.396      18.796
  N     -414.748     602.310      18.137
  O     -410.857     605.786      21.394
  O     -413.070     605.719      22.678
  H     -411.168     601.839      16.751
  H     -411.312     606.577      21.057
  H     -417.078     598.945      16.345
  H     -414.643     604.173      19.239
  H     -413.296     601.056      17.357
  H     -413.231     603.785      16.574
  H     -412.548     604.521      18.788
  H     -410.683     602.069      18.767
  H     -410.912     602.109      21.178
  H     -420.210     601.643      18.196
  H     -419.347     603.087      18.748
  H     -410.278     603.682      20.633
  P     -410.553     606.062      18.178
  C     -410.173     607.433      16.011
  O     -411.116     606.853      16.899
  O     -408.970     606.311      18.095
  O     -411.111     606.460      19.503
  H     -408.727     607.073      18.659
  H     -410.690     607.923      15.212
  H     -409.542     606.667      15.611
  H     -409.576     608.146      16.540

 6  7  8  9  10  11  12  13  14  15  25  28  32  33  34  35 0
 6-311+G(2d,p)
 ****
 36  39  40 0
 6-311+G(2d,p)
 ****
 1  2  3  4  5  16  17  18  19  20  21  22  23  24 0
 3-21G
 ****
 26  27  29  30  31  37  38  41  42  43  44  45  46  47  48 0
 3-21G
 ****


