%nproc=1
%NoSave
%Mem=1900MB
#P OB98/GEN NMR

erre ene a

0 1
  C     -147.757     -23.985    -304.787
  O     -146.480     -23.715    -304.196
  P     -145.872     -22.241    -304.394
  C     -145.883     -21.754    -301.824
  O     -145.126     -21.882    -303.015
  C     -145.047     -22.141    -300.596
  O     -144.717     -23.566    -300.655
  C     -143.726     -21.372    -300.463
  O     -143.520     -21.143    -299.054
  C     -142.695     -22.346    -300.997
  O     -141.388     -22.056    -300.519
  C     -143.288     -23.674    -300.503
  N     -142.751     -24.831    -301.228
  C     -142.016     -25.757    -300.488
  O     -141.742     -25.593    -299.300
  N     -141.573     -26.850    -301.178
  C     -141.708     -27.067    -302.521
  O     -141.289     -28.068    -303.088
  C     -142.393     -25.995    -303.273
  C     -142.878     -24.946    -302.601
  O     -147.197     -21.345    -304.379
  O     -145.036     -22.115    -305.629
  H     -147.871     -21.666    -303.747
  H     -140.875     -22.892    -300.466
  H     -141.062     -27.548    -300.655
  H     -142.471     -26.104    -304.350
  H     -143.367     -24.132    -303.126
  H     -143.076     -23.812    -299.438
  H     -142.677     -22.312    -302.096
  H     -143.736     -20.407    -300.987
  H     -145.660     -21.990    -299.700
  H     -146.762     -22.408    -301.870
  H     -146.256     -20.721    -301.736
  P     -144.307     -19.923    -298.357
  C     -146.068     -21.539    -297.269
  O     -145.092     -20.532    -297.092
  O     -145.477     -19.693    -299.434
  O     -143.489     -18.691    -298.119
  H     -145.911     -20.521    -299.708
  H     -146.298     -21.977    -296.296
  H     -145.700     -22.331    -297.929
  H     -146.980     -21.103    -297.694
  H     -148.040     -24.996    -304.579
  H     -147.697     -23.842    -305.846
  H     -148.487     -23.319    -304.378

 3  4  5  6  7  8  9  10  11  12  13  24  28  29  30  31  32 0
 6-311+G(2d,p)
 ****
 33  34 0
 6-311+G(2d,p)
 ****
 1  2  14  15  16  17  18  19  20  21  22  23  25  26  27 0
 3-21G
 ****
 35  36  37  38  39  40  41  42  43  44  45 0
 3-21G
 ****


