%nproc=1
%NoSave
%Mem=1900MB
#P OB98/GEN NMR

erre ene a

0 1
  C     -132.097      84.948     251.615
  O     -131.962      84.105     252.745
  P     -131.413      84.702     254.123
  C     -128.946      84.587     253.398
  O     -130.016      85.431     253.815
  C     -127.689      85.411     253.131
  O     -127.897      86.295     252.010
  C     -127.282      86.312     254.293
  O     -126.657      85.565     255.317
  C     -126.368      87.313     253.585
  O     -125.046      86.763     253.423
  C     -127.064      87.464     252.221
  N     -126.946      92.461     251.186
  C     -125.959      91.548     251.353
  N     -126.070      90.236     251.666
  C     -127.362      89.902     251.835
  C     -128.476      90.727     251.731
  C     -128.234      92.069     251.367
  N     -129.234      92.990     251.130
  N     -129.632      90.022     252.002
  C     -129.219      88.794     252.277
  N     -127.869      88.664     252.125
  O     -131.386      83.744     255.269
  O     -132.397      85.927     254.431
  H     -124.445      87.507     253.232
  H     -132.853      85.773     255.280
  H     -124.950      91.921     251.210
  H     -129.861      87.972     252.571
  H     -126.338      87.483     251.396
  H     -126.269      88.253     254.139
  H     -128.160      86.844     254.680
  H     -126.874      84.723     252.874
  H     -129.247      84.065     252.481
  H     -128.952      93.868     250.737
  H     -130.171      92.640     250.965
  H     -128.745      83.837     254.177
  P     -126.836      86.005     256.852
  C     -124.688      87.394     256.635
  O     -126.046      87.391     257.034
  O     -126.523      84.958     257.870
  O     -128.374      86.461     256.933
  H     -128.721      86.267     257.824
  H     -124.078      86.910     257.405
  H     -124.357      88.432     256.517
  H     -124.555      86.872     255.681
  H     -132.475      84.381     250.790
  H     -131.142      85.357     251.359
  H     -132.776      85.743     251.842

 3  4  5  6  7  8  9  10  11  12  22  25  29  30  31  32 0
 6-311+G(2d,p)
 ****
 33  36  37 0
 6-311+G(2d,p)
 ****
 1  2  13  14  15  16  17  18  19  20  21  23  24  26 0
 3-21G
 ****
 27  28  34  35  38  39  40  41  42  43  44  45  46  47  48 0
 3-21G
 ****


