%nproc=1
%NoSave
%Mem=1900MB
#P OB98/GEN NMR

erre ene a

0 1
  C     -306.466    1335.091     -60.194
  O     -307.690    1334.392     -60.363
  H     -305.734    1334.679     -60.892
  H     -306.099    1334.965     -59.175
  H     -306.610    1336.149     -60.410
  P     -308.873    1334.771     -59.340
  C     -310.304    1335.486     -61.408
  O     -310.195    1334.668     -60.252
  C     -311.542    1335.095     -62.212
  O     -311.336    1333.834     -62.890
  C     -312.799    1334.897     -61.369
  O     -313.421    1336.112     -60.980
  C     -313.657    1334.118     -62.363
  O     -314.156    1335.026     -63.373
  C     -312.620    1333.146     -62.952
  N     -312.555    1331.864     -62.207
  C     -313.575    1330.946     -62.470
  O     -314.474    1331.208     -63.271
  N     -313.572    1329.760     -61.782
  C     -312.634    1329.497     -60.931
  N     -312.688    1328.305     -60.276
  C     -311.531    1330.440     -60.634
  C     -311.553    1331.585     -61.311
  O     -308.709    1336.358     -59.147
  O     -308.920    1333.997     -58.067
  H     -314.687    1334.484     -63.996
  H     -309.480    1336.712     -58.652
  H     -310.772    1330.189     -59.915
  H     -310.768    1332.327     -61.155
  H     -312.828    1332.930     -64.005
  H     -314.529    1333.645     -61.910
  H     -312.611    1334.253     -60.500
  H     -311.697    1335.854     -62.984
  H     -313.489    1327.720     -60.449
  H     -309.398    1335.333     -62.014
  H     -312.087    1328.077     -59.493
  H     -310.372    1336.534     -61.126
  P     -314.338    1336.084     -59.666
  C     -312.929    1337.955     -58.494
  O     -314.215    1337.530     -58.979
  O     -313.523    1335.128     -58.670
  O     -315.742    1335.606     -59.887
  H     -314.137    1334.607     -58.118
  H     -313.014    1338.933     -58.068
  H     -312.232    1337.979     -59.305
  H     -312.585    1337.269     -57.748

 6  7  8  9  10  11  12  13  14  15  16  26  30  31  32  33  35 0
 6-311+G(2d,p)
 ****
 37  38 0
 6-311+G(2d,p)
 ****
 1  2  3  4  5  17  18  19  20  21  22  23  24  25 0
 3-21G
 ****
 27  28  29  34  36  39  40  41  42  43  44  45  46 0
 3-21G
 ****


