%nproc=1
%NoSave
%Mem=1900MB
#P OB98/GEN NMR

erre ene a

0 1
  C      784.849     153.730    -236.510
  O      784.729     152.785    -235.466
  H      785.100     153.206    -237.435
  H      785.656     154.435    -236.281
  H      783.913     154.273    -236.658
  P      784.190     153.271    -234.043
  C      782.002     152.174    -234.866
  O      782.586     153.222    -234.111
  C      780.488     152.131    -234.650
  O      780.224     151.826    -233.250
  C      779.758     153.455    -234.974
  O      778.434     153.111    -235.412
  C      779.741     154.109    -233.603
  O      778.891     155.224    -233.547
  C      779.369     152.878    -232.752
  N      779.539     153.052    -231.308
  C      778.509     153.667    -230.606
  O      777.464     154.064    -231.106
  N      778.715     153.811    -229.250
  C      779.819     153.398    -228.566
  O      779.938     153.526    -227.356
  C      780.874     152.767    -229.364
  C      780.692     152.623    -230.680
  O      784.760     154.552    -233.537
  O      784.537     152.046    -233.068
  H      785.337     152.260    -232.547
  H      778.798     155.509    -232.613
  H      777.975     154.239    -228.732
  H      781.774     152.444    -228.851
  H      781.447     152.153    -231.298
  H      778.330     152.585    -232.956
  H      780.732     154.478    -233.349
  H      780.263     154.037    -235.745
  H      780.071     151.296    -235.238
  H      782.447     151.222    -234.545
  H      782.224     152.325    -235.931
  P      777.611     153.975    -236.482
  C      778.185     152.237    -238.310
  O      778.161     153.606    -237.957
  O      777.589     155.440    -236.194
  O      776.120     153.363    -236.463
  H      775.490     154.047    -236.750
  H      778.568     152.132    -239.304
  H      777.192     151.840    -238.266
  H      778.813     151.704    -237.627

 6  7  8  9  10  11  12  13  14  15  16  27  31  32  33  34  35 0
 6-311+G(2d,p)
 ****
 36  37 0
 6-311+G(2d,p)
 ****
 1  2  3  4  5  17  18  19  20  21  22  23  24  25 0
 3-21G
 ****
 26  28  29  30  38  39  40  41  42  43  44  45 0
 3-21G
 ****


