%nproc=1
%NoSave
%Mem=1900MB
#P OB98/GEN NMR

erre ene a

0 1
  C        2.195      41.204     -74.098
  O        2.138      42.625     -74.234
  P        1.667      43.441     -72.934
  C        2.822      45.647     -73.645
  O        1.602      44.998     -73.324
  C        3.208      45.422     -75.111
  O        2.158      45.895     -76.006
  C        4.501      46.134     -75.526
  O        5.151      45.293     -76.488
  C        3.989      47.379     -76.225
  O        4.989      47.964     -77.056
  C        2.781      46.792     -76.953
  N       -0.010      48.295     -80.882
  C        0.923      47.280     -80.790
  N        1.102      46.522     -81.892
  N        1.616      47.030     -79.709
  C        1.303      47.845     -78.672
  C        0.391      48.873     -78.636
  C       -0.347      49.159     -79.847
  O       -1.186      50.043     -79.981
  N        0.333      49.450     -77.389
  C        1.264      48.808     -76.702
  N        1.839      47.793     -77.415
  O        2.934      43.340     -71.961
  O        0.432      42.892     -72.296
  H        4.528      48.456     -77.769
  H        2.786      42.653     -71.287
  H       -0.503      48.455     -81.744
  H        1.539      49.021     -75.682
  H        3.072      46.211     -77.838
  H        3.676      48.126     -75.486
  H        0.566      46.628     -82.738
  H        5.180      46.359     -74.699
  H        1.750      45.745     -81.837
  H        3.313      44.343     -75.275
  H        3.625      45.272     -73.005
  H        2.729      46.715     -73.420
  P        6.587      44.694     -76.109
  C        6.761      42.364     -77.219
  O        7.044      43.745     -77.313
  O        6.249      43.663     -74.928
  O        7.587      45.710     -75.660
  H        6.950      43.701     -74.252
  H        6.688      41.950     -78.227
  H        5.821      42.175     -76.692
  H        7.576      41.863     -76.690
  H        2.519      40.770     -75.021
  H        1.224      40.830     -73.850
  H        2.885      40.947     -73.321

 3  4  5  6  7  8  9  10  11  12  23  26  30  31 0
 6-311+G(2d,p)
 ****
 33  35  36  37  38 0
 6-311+G(2d,p)
 ****
 1  2  13  14  15  16  17  18  19  20  21  22  24  25 0
 3-21G
 ****
 27  28  29  32  34  39  40  41  42  43  44  45  46  47  48  49 0
 3-21G
 ****


