%nproc=1
%NoSave
%Mem=1900MB
#P OB98/GEN NMR

erre ene a

0 1
  C     -222.366    -563.141     -13.172
  O     -223.549    -562.892     -13.934
  P     -223.430    -562.079     -15.312
  C     -222.926    -559.710     -14.439
  O     -222.407    -560.853     -15.107
  C     -221.956    -558.518     -14.474
  O     -220.854    -558.720     -13.549
  C     -221.347    -558.239     -15.857
  O     -221.213    -556.817     -15.974
  C     -219.991    -558.904     -15.743
  O     -219.076    -558.434     -16.733
  C     -219.632    -558.564     -14.301
  N     -218.564    -559.413     -13.766
  C     -217.279    -559.228     -14.294
  O     -217.110    -558.452     -15.231
  N     -216.249    -559.952     -13.752
  C     -216.493    -560.881     -12.879
  N     -215.442    -561.561     -12.360
  C     -217.869    -561.224     -12.441
  C     -218.830    -560.437     -12.899
  O     -224.721    -561.720     -15.963
  O     -222.587    -563.081     -16.246
  H     -218.997    -557.453     -16.654
  H     -222.893    -562.995     -17.172
  H     -218.036    -562.059     -11.772
  H     -219.868    -560.610     -12.629
  H     -219.324    -557.521     -14.198
  H     -220.093    -559.984     -15.871
  H     -221.954    -558.616     -16.684
  H     -222.514    -557.631     -14.131
  H     -214.511    -561.332     -12.687
  H     -223.134    -559.976     -13.396
  H     -215.549    -562.271     -11.637
  H     -223.893    -559.442     -14.887
  P     -221.945    -556.068     -17.190
  C     -220.010    -556.910     -18.717
  O     -221.406    -556.696     -18.560
  O     -221.209    -554.631     -17.175
  O     -223.420    -555.883     -17.059
  H     -221.801    -553.967     -17.576
  H     -219.856    -557.597     -19.557
  H     -219.574    -557.375     -17.819
  H     -219.516    -555.970     -18.928
  H     -222.619    -563.690     -12.289
  H     -221.917    -562.210     -12.896
  H     -221.676    -563.709     -13.760

 3  4  5  6  7  8  9  10  11  12  13  23  27  28  29  30  32 0
 6-311+G(2d,p)
 ****
 34  35 0
 6-311+G(2d,p)
 ****
 1  2  14  15  16  17  18  19  20  21  22  24  25  26 0
 3-21G
 ****
 31  33  36  37  38  39  40  41  42  43  44  45  46 0
 3-21G
 ****


