%nproc=1
%NoSave
%Mem=1900MB
#P OB98/GEN NMR

erre ene a

0 1
  C     -891.982    -287.021    1994.995
  O     -891.672    -285.668    1994.689
  H     -891.922    -287.148    1996.077
  H     -891.282    -287.679    1994.515
  H     -893.002    -287.261    1994.685
  P     -891.872    -285.160    1993.189
  C     -893.502    -283.137    1993.103
  O     -893.372    -284.560    1993.095
  C     -894.642    -282.710    1994.037
  O     -894.342    -283.156    1995.390
  C     -894.872    -281.185    1994.101
  O     -896.252    -280.967    1994.379
  C     -894.002    -280.815    1995.300
  O     -894.232    -279.497    1995.747
  C     -894.372    -281.958    1996.246
  N     -893.492    -282.133    1997.392
  C     -894.052    -281.832    1998.660
  O     -895.192    -281.444    1998.835
  N     -893.182    -282.001    1999.707
  C     -891.912    -282.438    1999.655
  O     -891.182    -282.580    2000.651
  C     -891.402    -282.732    1998.304
  C     -892.202    -282.574    1997.253
  O     -891.532    -286.128    1992.111
  O     -890.982    -283.832    1993.102
  H     -890.142    -284.046    1992.644
  H     -894.012    -278.875    1995.032
  H     -893.562    -281.781    2000.626
  H     -890.352    -283.076    1998.242
  H     -891.842    -282.789    1996.249
  H     -895.422    -281.864    1996.595
  H     -892.932    -280.862    1995.014
  H     -894.602    -280.665    1993.166
  H     -895.562    -283.237    1993.750
  H     -893.742    -282.836    1992.081
  H     -892.552    -282.703    1993.431
  P     -897.302    -280.473    1993.257
  C     -899.302    -282.126    1993.546
  O     -898.142    -281.780    1992.784
  O     -896.702    -279.715    1992.131
  O     -898.392    -279.587    1994.063
  H     -898.792    -278.944    1993.434
  H     -899.756    -283.000    1993.128
  H     -900.000    -281.315    1993.521
  H     -899.018    -282.322    1994.559

 6  7  8  9  10  11  12  13  14  15  16  27  31  32  33  34  35 0
 6-311+G(2d,p)
 ****
 36  37 0
 6-311+G(2d,p)
 ****
 1  2  3  4  5  17  18  19  20  21  22  23  24  25 0
 3-21G
 ****
 26  28  29  30  38  39  40  41  42  43  44  45 0
 3-21G
 ****


