%nproc=1
%NoSave
%Mem=1900MB
#P OB98/GEN NMR

erre ene a

0 1
  C     -139.647     833.317    -244.867
  O     -140.705     833.282    -245.801
  H     -138.794     833.834    -245.318
  H     -139.344     832.303    -244.602
  H     -139.954     833.862    -243.969
  P     -142.059     832.560    -245.335
  C     -143.996     834.134    -246.046
  O     -143.192     833.012    -246.386
  C     -143.376     835.419    -246.596
  O     -143.206     835.283    -248.032
  C     -144.227     836.674    -246.342
  O     -143.351     837.771    -246.056
  C     -144.895     836.911    -247.687
  O     -145.297     838.267    -247.853
  C     -143.787     836.461    -248.636
  N     -145.245     838.604    -252.948
  C     -144.729     839.169    -251.796
  N     -144.589     840.513    -251.782
  N     -144.393     838.475    -250.741
  C     -144.565     837.139    -250.899
  C     -145.068     836.460    -251.985
  C     -145.461     837.243    -253.138
  O     -145.941     836.808    -254.178
  N     -145.118     835.109    -251.740
  C     -144.642     834.975    -250.516
  N     -144.292     836.175    -249.966
  O     -142.462     833.346    -244.000
  O     -141.961     831.088    -245.114
  H     -144.496     838.827    -247.791
  H     -142.944     832.763    -243.385
  H     -145.498     839.190    -253.724
  H     -144.537     834.035    -249.986
  H     -142.998     837.214    -248.746
  H     -145.779     836.275    -247.786
  H     -144.799     841.107    -252.568
  H     -144.950     836.557    -245.532
  H     -144.203     840.943    -250.949
  H     -142.371     835.531    -246.170
  H     -144.073     834.202    -244.958
  H     -144.997     833.997    -246.466
  P     -142.964     838.028    -244.521
  C     -140.549     838.870    -244.971
  O     -141.839     839.174    -244.458
  O     -142.161     836.696    -244.132
  O     -144.141     838.234    -243.626
  H     -142.703     836.151    -243.537
  H     -139.912     839.723    -244.862
  H     -140.628     838.614    -246.007
  H     -140.136     838.044    -244.430

 6  7  8  9  10  11  12  13  14  15  26  29  33  34 0
 6-311+G(2d,p)
 ****
 36  38  39  40  41 0
 6-311+G(2d,p)
 ****
 1  2  3  4  5  16  17  18  19  20  21  22  23  24  25 0
 3-21G
 ****
 27  28  30  31  32  35  37  42  43  44  45  46  47 0
 3-21G
 ****
 48  49 0
 3-21G
 ****


