%nproc=1
%NoSave
%Mem=1900MB
#P OB98/GEN NMR

erre ene a

0 1
  C      -15.561       5.184      -5.291
  O      -15.822       6.061      -4.218
  P      -14.658       6.531      -3.225
  C      -15.823       5.180      -1.366
  O      -14.597       5.447      -2.039
  C      -15.617       4.102      -0.295
  O      -15.449       2.811      -0.959
  C      -14.370       4.353       0.575
  O      -14.618       4.337       1.981
  C      -13.393       3.304       0.072
  O      -12.357       2.997       0.985
  C      -14.337       2.160      -0.314
  N      -13.695       1.170      -1.174
  C      -14.204      -0.125      -1.140
  O      -15.153      -0.480      -0.448
  N      -13.539      -1.049      -1.897
  C      -12.376      -0.842      -2.575
  O      -11.780      -1.741      -3.152
  C      -11.864       0.537      -2.543
  C      -12.545       1.471      -1.876
  O      -14.746       7.945      -2.760
  O      -13.324       6.197      -4.047
  H      -11.932       3.835       1.248
  H      -13.214       5.261      -4.286
  H      -13.897      -1.992      -1.881
  H      -10.938       0.729      -3.063
  H      -12.193       2.496      -1.834
  H      -14.726       1.649       0.568
  H      -12.913       3.700      -0.832
  H      -13.957       5.352       0.392
  H      -16.523       4.062       0.316
  H      -16.554       4.826      -2.095
  H      -16.215       6.105      -0.928
  P      -13.972       5.347       3.041
  C      -12.233       3.603       3.875
  O      -12.467       4.881       3.321
  O      -14.792       5.599       4.261
  O      -13.782       6.697       2.200
  H      -13.840       7.465       2.799
  H      -11.303       3.636       4.449
  H      -12.120       2.876       3.068
  H      -13.048       3.295       4.536
  H      -16.468       4.997      -5.828
  H      -15.175       4.261      -4.911
  H      -14.843       5.628      -5.948

 3  4  5  6  7  8  9  10  11  12  13  23  28  29  30  31  32 0
 6-311+G(2d,p)
 ****
 33  34 0
 6-311+G(2d,p)
 ****
 1  2  14  15  16  17  18  19  20  21  22  24  25  26  27 0
 3-21G
 ****
 35  36  37  38  39  40  41  42  43  44  45 0
 3-21G
 ****


