%nproc=1
%NoSave
%Mem=1900MB
#P OB98/GEN NMR

erre ene a

0 1
  C      366.853    -186.322      80.667
  O      365.527    -186.768      80.441
  P      364.581    -187.204      81.657
  C      362.306    -186.080      80.977
  O      363.078    -187.254      81.132
  C      360.932    -186.464      80.403
  O      361.022    -186.634      78.972
  C      360.415    -187.767      81.001
  O      359.557    -187.500      82.102
  C      359.705    -188.413      79.824
  O      358.389    -187.865      79.662
  C      360.616    -187.989      78.645
  N      361.833    -188.787      78.383
  C      361.737    -189.947      77.616
  O      360.694    -190.350      77.106
  N      362.904    -190.659      77.477
  C      364.127    -190.300      77.973
  O      365.092    -191.052      78.047
  C      364.209    -188.946      78.527
  C      363.073    -188.272      78.722
  O      364.603    -185.908      82.600
  O      364.999    -188.436      82.386
  H      358.474    -186.894      79.656
  H      365.236    -186.029      83.334
  H      362.817    -191.574      77.038
  H      365.178    -188.560      78.806
  H      363.104    -187.278      79.168
  H      360.046    -187.953      77.708
  H      359.571    -189.475      79.991
  H      361.252    -188.405      81.299
  H      360.227    -185.642      80.596
  H      362.817    -185.383      80.311
  H      362.179    -185.585      81.946
  P      359.913    -188.102      83.547
  C      359.420    -185.854      84.680
  O      359.073    -187.229      84.592
  O      361.369    -188.233      83.845
  O      359.176    -189.527      83.541
  H      359.821    -190.228      83.311
  H      358.663    -185.340      85.279
  H      359.457    -185.402      83.687
  H      360.396    -185.757      85.161
  H      367.312    -186.081      79.731
  H      367.412    -187.096      81.150
  H      366.835    -185.453      81.290

 3  4  5  6  7  8  9  10  11  12  13  23  28  29  30  31  32 0
 6-311+G(2d,p)
 ****
 33  34 0
 6-311+G(2d,p)
 ****
 1  2  14  15  16  17  18  19  20  21  22  24  25  26  27 0
 3-21G
 ****
 35  36  37  38  39  40  41  42  43  44  45 0
 3-21G
 ****


