%nproc=1
%NoSave
%Mem=1900MB
#P OB98/GEN NMR

erre ene a

0 1
  C      393.166     466.418    -179.245
  O      392.218     466.904    -178.315
  H      393.367     465.367    -179.011
  H      394.095     466.981    -179.154
  H      392.787     466.481    -180.266
  P      391.495     468.303    -178.611
  C      392.472     469.365    -176.466
  O      391.295     469.037    -177.198
  C      392.238     469.210    -174.959
  O      391.064     469.986    -174.578
  C      391.938     467.753    -174.580
  O      392.330     467.453    -173.239
  C      390.425     467.673    -174.673
  O      389.861     466.614    -173.905
  C      390.018     469.071    -174.203
  N      385.204     470.414    -173.188
  C      386.141     469.816    -172.363
  N      385.735     469.551    -171.097
  N      387.343     469.501    -172.742
  C      387.589     469.760    -174.055
  C      386.742     470.326    -174.979
  C      385.410     470.708    -174.535
  O      384.542     471.208    -175.229
  N      387.342     470.420    -176.212
  C      388.536     469.911    -176.037
  N      388.747     469.523    -174.739
  O      390.000     467.876    -178.990
  O      392.129     469.140    -179.680
  H      388.900     466.634    -174.040
  H      389.575     468.587    -179.517
  H      384.300     470.665    -172.835
  H      389.289     469.825    -176.809
  H      389.944     469.096    -173.102
  H      390.155     467.488    -175.723
  H      384.759     469.600    -170.829
  H      392.414     467.037    -175.250
  H      386.283     468.854    -170.582
  H      393.081     469.622    -174.399
  H      392.727     470.401    -176.714
  H      393.311     468.741    -176.788
  P      393.857     467.039    -172.966
  C      393.416     464.438    -172.662
  O      393.907     465.662    -172.146
  O      394.350     468.129    -171.902
  O      394.718     467.009    -174.181
  H      395.061     468.674    -172.290
  H      393.557     463.663    -171.938
  H      393.947     464.190    -173.557
  H      392.373     464.536    -172.881

 6  7  8  9  10  11  12  13  14  15  26  29  33  34 0
 6-311+G(2d,p)
 ****
 36  38  39  40  41 0
 6-311+G(2d,p)
 ****
 1  2  3  4  5  16  17  18  19  20  21  22  23  24  25 0
 3-21G
 ****
 27  28  30  31  32  35  37  42  43  44  45  46  47 0
 3-21G
 ****
 48  49 0
 3-21G
 ****


