%nproc=1
%NoSave
%Mem=1900MB
#P OB98/GEN NMR

erre ene a

0 1
  C       10.708      48.650      94.185
  O       10.078      49.567      93.319
  H       11.744      48.965      94.335
  H       10.706      47.656      93.729
  H       10.210      48.609      95.157
  P        8.481      49.622      93.286
  C        7.087      48.860      91.251
  O        7.959      48.464      92.302
  C        7.832      49.010      89.924
  O        8.391      47.738      89.534
  C        6.914      49.458      88.783
  O        6.759      50.862      88.670
  C        7.628      48.886      87.561
  O        8.608      49.805      87.050
  C        8.308      47.625      88.106
  N        8.371      43.247      85.463
  C        9.258      44.307      85.407
  N       10.260      44.193      84.508
  N        9.151      45.375      86.154
  C        8.044      45.387      86.930
  C        7.085      44.407      87.055
  C        7.251      43.195      86.281
  O        6.504      42.223      86.306
  N        6.081      44.789      87.913
  C        6.392      46.029      88.234
  N        7.613      46.407      87.727
  O        8.171      50.954      92.445
  O        7.809      49.677      94.625
  H        8.875      49.499      86.163
  H        7.338      51.351      92.758
  H        8.521      42.440      84.886
  H        5.794      46.679      88.863
  H        9.336      47.533      87.735
  H        6.920      48.697      86.750
  H       10.340      43.434      83.851
  H        5.935      48.977      88.862
  H       10.818      45.024      84.302
  H        8.673      49.702      90.058
  H        6.657      49.817      91.549
  H        6.264      48.147      91.150
  P        5.520      51.491      87.880
  C        5.929      52.347      85.431
  O        5.752      51.264      86.317
  O        5.738      53.066      88.061
  O        4.171      51.054      88.347
  H        5.176      53.410      88.779
  H        6.068      51.976      84.437
  H        6.790      52.911      85.725
  H        5.064      52.976      85.459

 6  7  8  9  10  11  12  13  14  15  26  29  33  34 0
 6-311+G(2d,p)
 ****
 36  38  39  40  41 0
 6-311+G(2d,p)
 ****
 1  2  3  4  5  16  17  18  19  20  21  22  23  24  25 0
 3-21G
 ****
 27  28  30  31  32  35  37  42  43  44  45  46  47 0
 3-21G
 ****
 48  49 0
 3-21G
 ****


