%nproc=1
%NoSave
%Mem=1900MB
#P OB98/GEN NMR

erre ene a

0 1
  C       51.856    -487.316     198.128
  O       52.548    -487.472     196.889
  P       53.531    -488.727     196.717
  C       52.702    -489.865     194.553
  O       52.732    -489.907     195.977
  C       51.733    -490.925     194.001
  O       52.203    -492.238     194.400
  C       50.293    -490.819     194.525
  O       49.375    -489.995     193.813
  C       49.813    -492.262     194.351
  O       49.377    -492.471     192.993
  C       51.059    -493.096     194.626
  N       49.190    -496.691     197.747
  C       48.956    -496.420     196.441
  N       49.496    -495.440     195.685
  C       50.371    -494.712     196.400
  C       50.711    -494.880     197.732
  C       50.074    -495.926     198.421
  N       50.301    -496.198     199.749
  N       51.637    -493.934     198.124
  C       51.836    -493.197     197.043
  N       51.108    -493.634     195.976
  O       54.290    -489.134     197.938
  O       54.531    -488.224     195.569
  H       50.139    -492.261     192.424
  H       55.432    -488.550     195.763
  H       48.239    -497.067     195.938
  H       52.499    -492.341     196.995
  H       51.153    -493.947     193.938
  H       48.956    -492.493     194.994
  H       50.283    -490.548     195.585
  H       51.735    -490.881     192.905
  H       53.705    -490.042     194.158
  H       49.768    -496.940     200.179
  H       50.913    -495.597     200.285
  H       52.420    -488.850     194.265
  P       48.403    -488.980     194.572
  C       50.110    -487.057     194.075
  O       49.333    -487.755     195.025
  O       47.592    -489.580     195.667
  O       47.545    -488.356     193.375
  H       48.049    -487.786     192.770
  H       50.490    -486.141     194.536
  H       49.513    -486.793     193.198
  H       50.958    -487.679     193.770
  H       51.244    -486.439     198.087
  H       52.566    -487.219     198.923
  H       51.239    -488.173     198.303

 3  4  5  6  7  8  9  10  11  12  22  25  29  30  31  32 0
 6-311+G(2d,p)
 ****
 33  36  37 0
 6-311+G(2d,p)
 ****
 1  2  13  14  15  16  17  18  19  20  21  23  24  26 0
 3-21G
 ****
 27  28  34  35  38  39  40  41  42  43  44  45  46  47  48 0
 3-21G
 ****


