%nproc=1
%NoSave
%Mem=1900MB
#P OB98/GEN NMR

erre ene a

0 1
  C      221.000    -599.736    -172.137
  O      220.412    -601.016    -172.161
  H      221.968    -599.791    -172.643
  H      221.164    -599.424    -171.099
  H      220.375    -598.999    -172.645
  P      218.838    -601.145    -171.889
  C      218.413    -602.383    -174.117
  O      218.104    -601.250    -173.316
  C      217.417    -603.527    -173.898
  O      216.066    -603.071    -174.149
  C      217.650    -604.698    -174.853
  O      218.636    -605.624    -174.451
  C      216.270    -605.346    -174.899
  O      216.104    -606.270    -173.803
  C      215.327    -604.149    -174.737
  N      213.154    -605.510    -179.170
  C      213.693    -606.310    -178.180
  N      213.714    -607.641    -178.440
  N      214.191    -605.848    -177.061
  C      214.196    -604.493    -176.984
  C      213.693    -603.589    -177.907
  C      213.101    -604.118    -179.115
  O      212.609    -603.450    -180.025
  N      213.870    -602.292    -177.481
  C      214.538    -602.411    -176.349
  N      214.728    -603.727    -175.988
  O      218.418    -599.679    -171.392
  O      218.439    -602.186    -170.888
  H      215.202    -606.635    -173.841
  H      217.629    -599.736    -170.822
  H      212.754    -605.917    -179.989
  H      214.882    -601.578    -175.741
  H      214.501    -604.386    -174.049
  H      216.115    -605.916    -175.821
  H      213.458    -608.029    -179.328
  H      217.883    -604.320    -175.861
  H      214.333    -608.228    -177.867
  H      217.458    -603.845    -172.852
  H      219.414    -602.702    -173.831
  H      218.450    -602.103    -175.176
  P      219.494    -606.412    -175.552
  C      221.373    -604.678    -176.068
  O      220.179    -605.310    -176.488
  O      218.373    -607.066    -176.475
  O      220.424    -607.446    -175.000
  H      218.198    -607.989    -176.211
  H      221.686    -603.976    -176.812
  H      222.137    -605.415    -175.929
  H      221.200    -604.166    -175.145

 6  7  8  9  10  11  12  13  14  15  26  29  33  34 0
 6-311+G(2d,p)
 ****
 36  38  39  40  41 0
 6-311+G(2d,p)
 ****
 1  2  3  4  5  16  17  18  19  20  21  22  23  24  25 0
 3-21G
 ****
 27  28  30  31  32  35  37  42  43  44  45  46  47 0
 3-21G
 ****
 48  49 0
 3-21G
 ****


