%nproc=1
%NoSave
%Mem=1900MB
#P OB98/GEN NMR

erre ene a

0 1
  C     -179.150     185.023     153.144
  O     -180.050     184.751     154.200
  H     -178.968     184.099     152.590
  H     -178.199     185.387     153.544
  H     -179.579     185.765     152.465
  P     -180.466     185.996     155.124
  C     -178.861     185.356     157.051
  O     -179.161     186.279     156.014
  C     -179.926     185.419     158.145
  O     -179.742     184.351     159.092
  C     -179.908     186.705     158.964
  O     -180.576     187.749     158.276
  C     -180.675     186.263     160.201
  O     -182.091     186.279     159.927
  C     -180.196     184.812     160.392
  N     -178.297     181.784     164.077
  C     -179.474     181.761     163.416
  N     -179.929     182.623     162.481
  C     -179.029     183.589     162.243
  C     -177.785     183.739     162.839
  C     -177.420     182.773     163.793
  N     -176.213     182.793     164.456
  N     -177.136     184.852     162.346
  C     -177.950     185.332     161.427
  N     -179.124     184.626     161.351
  O     -181.753     185.854     155.860
  O     -180.420     187.193     154.060
  H     -182.335     187.197     159.702
  H     -179.672     187.078     153.448
  H     -180.142     180.942     163.670
  H     -177.734     186.175     160.782
  H     -181.013     184.153     160.707
  H     -180.509     186.926     161.053
  H     -178.889     186.982     159.254
  H     -180.902     185.269     157.672
  H     -177.875     185.567     157.478
  H     -176.103     182.168     165.240
  H     -175.616     183.598     164.335
  H     -178.837     184.356     156.605
  P     -179.773     189.044     157.778
  C     -180.395     190.540     159.774
  O     -179.348     189.854     159.098
  O     -180.468     189.863     156.747
  O     -178.379     188.471     157.243
  H     -178.096     188.961     156.447
  H     -179.998     191.041     160.632
  H     -181.140     189.837     160.084
  H     -180.835     191.258     159.114

 6  7  8  9  10  11  12  13  14  15  25  28  32  33  34  35 0
 6-311+G(2d,p)
 ****
 36  39  40 0
 6-311+G(2d,p)
 ****
 1  2  3  4  5  16  17  18  19  20  21  22  23  24 0
 3-21G
 ****
 26  27  29  30  31  37  38  41  42  43  44  45  46  47 0
 3-21G
 ****
 48 0
 3-21G
 ****


