%nproc=1
%NoSave
%Mem=1900MB
#P OB98/GEN NMR

erre ene a

0 1
  C     -230.618      29.217    -579.978
  O     -230.128      27.939    -579.551
  P     -229.121      27.180    -580.550
  C     -229.202      26.196    -582.930
  O     -229.855      26.987    -581.961
  C     -229.581      26.623    -584.365
  O     -231.016      26.585    -584.562
  C     -229.097      28.036    -584.720
  O     -228.770      28.038    -586.115
  C     -230.348      28.874    -584.517
  O     -230.261      30.109    -585.224
  C     -231.435      27.903    -584.997
  N     -232.772      28.239    -584.518
  C     -233.516      29.133    -585.285
  O     -233.020      29.667    -586.283
  N     -234.793      29.449    -584.880
  C     -235.264      28.951    -583.780
  N     -236.533      29.293    -583.436
  C     -234.488      28.038    -582.905
  C     -233.262      27.731    -583.337
  O     -229.054      25.696    -579.939
  O     -227.764      27.804    -580.608
  H     -230.438      29.924    -586.177
  H     -228.123      25.415    -579.838
  H     -234.909      27.656    -581.994
  H     -232.625      27.074    -582.775
  H     -231.473      27.885    -586.104
  H     -230.490      29.099    -583.452
  H     -228.240      28.370    -584.137
  H     -229.134      25.904    -585.066
  H     -237.031      29.920    -584.055
  H     -229.473      25.136    -582.802
  H     -236.987      28.975    -582.605
  H     -228.121      26.247    -582.776
  P     -227.245      27.759    -586.530
  C     -225.108      29.199    -586.585
  O     -226.491      29.166    -586.278
  O     -227.355      27.741    -588.129
  O     -226.571      26.536    -586.008
  H     -226.481      27.506    -588.515
  H     -224.756      30.228    -586.483
  H     -224.934      28.857    -587.605
  H     -224.563      28.577    -585.867
  H     -231.273      29.615    -579.232
  H     -231.152      29.105    -580.898
  H     -229.794      29.885    -580.122

 3  4  5  6  7  8  9  10  11  12  13  21  23  27  28  29  30  32 0
 6-311+G(2d,p)
 ****
 34  35 0
 6-311+G(2d,p)
 ****
 1  2  14  15  16  17  18  19  20  22  24  25  26 0
 3-21G
 ****
 31  33  36  37  38  39  40  41  42  43  44  45  46 0
 3-21G
 ****


