%nproc=1
%NoSave
%Mem=1900MB
#P OB98/GEN NMR

erre ene a

0 1
  C     -442.837    -128.991     292.036
  O     -441.553    -129.595     292.082
  P     -441.227    -130.717     290.989
  C     -439.365    -131.058     289.204
  O     -439.914    -130.233     290.222
  C     -437.883    -130.766     289.005
  O     -437.678    -129.370     288.690
  C     -437.032    -131.028     290.240
  O     -436.803    -132.426     290.401
  C     -435.770    -130.229     289.924
  O     -434.843    -131.000     289.145
  C     -436.332    -129.032     289.105
  N     -436.313    -127.782     289.842
  C     -435.384    -126.829     289.395
  O     -434.645    -127.092     288.443
  N     -435.290    -125.634     290.060
  C     -436.061    -125.400     291.084
  N     -435.929    -124.202     291.695
  C     -437.037    -126.389     291.596
  C     -437.090    -127.552     290.938
  O     -442.393    -130.519     289.895
  O     -441.189    -132.118     291.522
  H     -434.049    -130.442     289.060
  H     -442.565    -131.351     289.413
  H     -437.650    -126.142     292.452
  H     -437.791    -128.321     291.258
  H     -435.766    -128.892     288.178
  H     -435.245    -129.922     290.839
  H     -437.524    -130.624     291.135
  H     -437.512    -131.359     288.147
  H     -435.247    -123.538     291.326
  H     -439.897    -130.857     288.250
  H     -436.490    -123.907     292.491
  H     -439.531    -132.110     289.460
  P     -436.399    -132.954     291.856
  C     -436.551    -135.260     292.951
  O     -437.093    -134.378     291.986
  O     -437.311    -132.042     292.807
  O     -434.946    -132.872     292.239
  H     -437.081    -132.202     293.741
  H     -437.204    -136.130     293.054
  H     -436.477    -134.770     293.923
  H     -435.558    -135.596     292.638
  H     -442.918    -128.265     292.818
  H     -443.589    -129.741     292.167
  H     -442.972    -128.512     291.089

 3  4  5  6  7  8  9  10  11  12  13  21  23  27  28  29  30  32 0
 6-311+G(2d,p)
 ****
 34  35 0
 6-311+G(2d,p)
 ****
 1  2  14  15  16  17  18  19  20  22  24  25  26 0
 3-21G
 ****
 31  33  36  37  38  39  40  41  42  43  44  45  46 0
 3-21G
 ****


