%nproc=1
%NoSave
%Mem=1900MB
#P OB98/GEN NMR

erre ene a

0 1
  C        3.166    -271.847     142.393
  O        3.664    -272.027     141.076
  P        3.210    -273.338     140.273
  C        1.496    -271.987     138.844
  O        1.721    -273.063     139.741
  C        0.898    -272.493     137.528
  O       -0.171    -273.426     137.845
  C        0.288    -271.405     136.630
  O        0.480    -271.831     135.276
  C       -1.186    -271.453     136.979
  O       -2.013    -270.891     135.962
  C       -1.376    -272.949     137.202
  N       -6.355    -273.873     137.243
  C       -5.529    -273.517     136.186
  N       -6.101    -273.463     134.964
  N       -4.252    -273.249     136.319
  C       -3.822    -273.361     137.603
  C       -4.544    -273.656     138.730
  C       -5.943    -273.994     138.565
  O       -6.692    -274.390     139.451
  N       -3.773    -273.585     139.859
  C       -2.558    -273.326     139.413
  N       -2.531    -273.222     138.038
  O        3.007    -274.419     141.436
  O        4.158    -273.810     139.209
  H       -2.941    -271.140     136.160
  H        3.808    -274.956     141.565
  H       -7.326    -274.089     137.070
  H       -1.678    -273.203     140.012
  H       -1.509    -273.504     136.264
  H       -1.364    -270.889     137.904
  H       -7.069    -273.693     134.786
  H        0.732    -270.421     136.785
  H       -5.509    -273.247     134.172
  H        1.670    -273.052     136.988
  H        2.457    -271.504     138.623
  H        0.835    -271.248     139.312
  P        0.757    -270.700     134.170
  C        3.313    -270.590     134.597
  O        2.076    -269.902     134.608
  O       -0.421    -269.645     134.434
  O        0.722    -271.189     132.757
  H       -0.682    -269.224     133.592
  H        4.126    -269.859     134.524
  H        3.382    -271.282     133.757
  H        3.426    -271.150     135.532
  H        3.552    -270.936     142.799
  H        3.473    -272.669     143.006
  H        2.097    -271.801     142.367

 3  4  5  6  7  8  9  10  11  12  23  26  30  31 0
 6-311+G(2d,p)
 ****
 33  35  36  37  38 0
 6-311+G(2d,p)
 ****
 1  2  13  14  15  16  17  18  19  20  21  22  24  25 0
 3-21G
 ****
 27  28  29  32  34  39  40  41  42  43  44  45  46  47  48  49 0
 3-21G
 ****


