%nproc=1
%NoSave
%Mem=1900MB
#P OB98/GEN NMR

erre ene a

0 1
  C     1363.062    -532.398    -781.805
  O     1362.081    -532.579    -780.816
  H     1364.043    -532.260    -781.322
  H     1362.843    -531.502    -782.395
  H     1363.122    -533.267    -782.463
  P     1360.617    -533.009    -781.312
  C     1359.780    -530.619    -781.899
  O     1359.660    -531.745    -781.046
  C     1358.791    -529.536    -781.476
  O     1357.441    -530.057    -781.463
  C     1359.039    -528.958    -780.090
  O     1360.037    -527.946    -780.106
  C     1357.676    -528.359    -779.775
  O     1357.508    -527.126    -780.495
  C     1356.727    -529.431    -780.354
  N     1355.004    -530.273    -775.659
  C     1355.313    -529.087    -776.301
  N     1355.146    -527.968    -775.562
  N     1355.748    -529.001    -777.524
  C     1355.866    -530.208    -778.118
  C     1355.606    -531.457    -777.604
  C     1355.116    -531.534    -776.247
  O     1354.804    -532.549    -775.650
  N     1355.840    -532.457    -778.522
  C     1356.282    -531.807    -779.578
  N     1356.337    -530.442    -779.391
  O     1360.137    -534.076    -780.217
  O     1360.554    -533.579    -782.688
  H     1357.726    -527.310    -781.434
  H     1359.613    -534.765    -780.655
  H     1354.690    -530.283    -774.702
  H     1356.575    -532.279    -780.518
  H     1355.810    -528.993    -780.760
  H     1357.540    -528.148    -778.721
  H     1354.869    -527.952    -774.598
  H     1359.270    -529.744    -779.355
  H     1355.333    -527.073    -776.013
  H     1358.817    -528.735    -782.246
  H     1359.558    -530.927    -782.930
  H     1360.807    -530.237    -781.857
  P     1361.294    -528.137    -779.125
  C     1359.857    -528.560    -776.990
  O     1360.766    -527.698    -777.666
  O     1362.272    -526.935    -779.537
  O     1361.974    -529.461    -779.204
  H     1363.189    -527.147    -779.275
  H     1359.601    -528.135    -776.042
  H     1360.315    -529.515    -776.841
  H     1358.972    -528.677    -777.579

 6  7  8  9  10  11  12  13  14  15  26  29  33  34 0
 6-311+G(2d,p)
 ****
 36  38  39  40  41 0
 6-311+G(2d,p)
 ****
 1  2  3  4  5  16  17  18  19  20  21  22  23  24  25 0
 3-21G
 ****
 27  28  30  31  32  35  37  42  43  44  45  46  47 0
 3-21G
 ****
 48  49 0
 3-21G
 ****


