%nproc=1
%NoSave
%Mem=1900MB
#P OB98/GEN NMR

erre ene a

0 1
  C     -210.776    -284.031     780.729
  O     -209.985    -284.162     781.909
  P     -210.021    -285.420     782.894
  C     -212.441    -284.987     783.849
  O     -211.550    -285.836     783.126
  C     -212.847    -285.634     785.185
  O     -213.810    -284.760     785.861
  C     -213.525    -287.008     784.999
  O     -213.113    -287.984     785.949
  C     -215.006    -286.641     784.987
  O     -215.862    -287.750     785.259
  C     -215.062    -285.479     785.977
  N     -219.970    -284.439     786.927
  C     -219.239    -285.553     787.258
  N     -219.893    -286.535     787.899
  N     -217.979    -285.703     786.954
  C     -217.460    -284.681     786.225
  C     -218.087    -283.526     785.848
  C     -219.475    -283.331     786.220
  O     -220.172    -282.356     785.986
  N     -217.240    -282.706     785.127
  C     -216.107    -283.378     785.075
  N     -216.189    -284.587     785.745
  O     -209.159    -285.318     784.106
  O     -209.448    -286.634     782.007
  H     -215.477    -288.235     786.017
  H     -208.981    -287.236     782.615
  H     -220.937    -284.349     787.208
  H     -215.207    -283.039     784.601
  H     -215.158    -285.826     787.002
  H     -215.259    -286.292     783.966
  H     -220.891    -286.551     788.059
  H     -213.254    -287.448     784.035
  H     -219.417    -287.445     787.935
  H     -211.956    -285.718     785.825
  H     -213.328    -284.873     783.206
  H     -211.998    -284.002     784.002
  P     -212.042    -289.171     785.762
  C     -213.715    -291.127     785.607
  O     -212.760    -290.355     784.908
  O     -211.886    -289.822     787.207
  O     -210.713    -288.728     785.228
  H     -210.956    -289.722     787.502
  H     -213.911    -292.027     785.015
  H     -214.651    -290.561     785.706
  H     -213.354    -291.405     786.589
  H     -210.558    -283.096     780.256
  H     -211.813    -284.066     780.989
  H     -210.549    -284.832     780.057

 3  4  5  6  7  8  9  10  11  12  23  26  30  31 0
 6-311+G(2d,p)
 ****
 33  35  36  37  38 0
 6-311+G(2d,p)
 ****
 1  2  13  14  15  16  17  18  19  20  21  22  24  25 0
 3-21G
 ****
 27  28  29  32  34  39  40  41  42  43  44  45  46  47  48  49 0
 3-21G
 ****


