%nproc=1
%NoSave
%Mem=1900MB
#P OB98/GEN NMR

erre ene a

0 1
  C      170.053    -251.031    -168.058
  O      169.792    -249.771    -167.449
  P      170.679    -248.512    -167.900
  C      172.406    -248.546    -165.968
  O      172.166    -248.765    -167.351
  C      173.520    -247.523    -165.758
  O      174.769    -248.075    -166.254
  C      173.301    -246.183    -166.471
  O      173.889    -245.160    -165.653
  C      174.121    -246.333    -167.738
  O      174.452    -245.076    -168.322
  C      175.309    -247.130    -167.204
  N      179.921    -248.455    -168.987
  C      179.542    -247.774    -167.880
  N      178.294    -247.459    -167.474
  C      177.381    -247.926    -168.344
  C      177.615    -248.606    -169.527
  C      178.956    -248.878    -169.847
  N      179.341    -249.581    -170.961
  N      176.424    -248.896    -170.163
  C      175.487    -248.398    -169.378
  N      176.021    -247.827    -168.255
  O      170.124    -247.340    -166.961
  O      170.576    -248.145    -169.344
  H      175.123    -245.225    -169.013
  H      169.640    -246.683    -167.500
  H      180.354    -247.442    -167.235
  H      174.424    -248.427    -169.575
  H      176.030    -246.493    -166.674
  H      173.557    -246.913    -168.481
  H      172.250    -245.951    -166.673
  H      173.644    -247.364    -164.677
  H      172.705    -249.490    -165.510
  H      180.305    -249.848    -171.051
  H      178.629    -250.059    -171.504
  H      171.483    -248.204    -165.486
  P      173.134    -243.749    -165.602
  C      174.589    -242.710    -167.483
  O      173.295    -243.087    -167.051
  O      174.080    -242.857    -164.668
  O      171.737    -243.818    -165.071
  H      173.554    -242.167    -164.216
  H      174.658    -242.846    -168.563
  H      175.369    -243.304    -166.996
  H      174.748    -241.651    -167.241
  H      169.386    -251.766    -167.657
  H      171.064    -251.320    -167.860
  H      169.905    -250.954    -169.115

 3  4  5  6  7  8  9  10  11  12  22  25  29  30  31  32 0
 6-311+G(2d,p)
 ****
 33  36  37 0
 6-311+G(2d,p)
 ****
 1  2  13  14  15  16  17  18  19  20  21  23  24  26 0
 3-21G
 ****
 27  28  34  35  38  39  40  41  42  43  44  45  46  47  48 0
 3-21G
 ****


