%nproc=1
%NoSave
%Mem=1900MB
#P OB98/GEN NMR

erre ene a

0 1
  C     -681.863     869.682    -755.887
  O     -680.449     869.479    -755.821
  P     -679.970     867.945    -755.725
  C     -678.356     868.014    -757.758
  O     -679.549     867.460    -757.206
  C     -677.862     867.183    -758.937
  O     -677.517     865.827    -758.516
  C     -678.861     867.044    -760.080
  O     -678.133     867.012    -761.311
  C     -679.489     865.691    -759.829
  O     -680.120     865.182    -760.997
  C     -678.254     864.917    -759.382
  N     -680.887     860.606    -759.633
  C     -680.906     861.711    -760.447
  N     -681.731     861.639    -761.531
  N     -680.199     862.781    -760.234
  C     -679.401     862.704    -759.145
  C     -679.267     861.650    -758.255
  C     -680.088     860.480    -758.495
  O     -680.103     859.480    -757.787
  N     -678.341     861.944    -757.289
  C     -677.970     863.174    -757.557
  N     -678.534     863.668    -758.711
  O     -681.340     867.156    -755.447
  O     -678.958     867.696    -754.649
  H     -680.707     865.872    -761.355
  H     -681.411     866.935    -754.497
  H     -681.462     859.799    -759.820
  H     -677.271     863.746    -756.978
  H     -677.594     864.658    -760.233
  H     -680.224     865.722    -759.029
  H     -682.259     860.819    -761.777
  H     -679.632     867.843    -760.114
  H     -681.732     862.415    -762.183
  H     -676.941     867.644    -759.317
  H     -677.583     868.054    -756.977
  H     -678.541     869.060    -758.034
  P     -678.079     868.341    -762.192
  C     -675.561     868.240    -762.827
  O     -676.581     868.917    -762.107
  O     -678.929     869.380    -761.299
  O     -678.638     868.200    -763.563
  H     -679.472     869.950    -761.906
  H     -674.767     868.931    -763.047
  H     -675.933     867.790    -763.745
  H     -675.151     867.452    -762.174
  H     -682.070     870.730    -755.948
  H     -682.323     869.278    -755.009
  H     -682.254     869.190    -756.753

 3  4  5  6  7  8  9  10  11  12  23  26  30  31 0
 6-311+G(2d,p)
 ****
 33  35  36  37  38 0
 6-311+G(2d,p)
 ****
 1  2  13  14  15  16  17  18  19  20  21  22  24  25 0
 3-21G
 ****
 27  28  29  32  34  39  40  41  42  43  44  45  46  47  48  49 0
 3-21G
 ****


