%nproc=1
%NoSave
%Mem=1900MB
#P OB98/GEN NMR

erre ene a

0 1
  C     -117.895     182.985    -355.550
  O     -119.248     183.385    -355.406
  P     -119.972     183.362    -353.971
  C     -121.513     185.430    -354.123
  O     -121.414     184.010    -354.224
  C     -122.835     185.908    -354.742
  O     -122.770     185.770    -356.181
  C     -124.062     185.106    -354.306
  O     -124.461     185.476    -352.997
  C     -125.041     185.452    -355.424
  O     -125.623     186.755    -355.194
  C     -124.114     185.510    -356.660
  N     -124.163     184.281    -357.452
  C     -125.237     184.168    -358.342
  O     -126.078     185.055    -358.448
  N     -125.307     183.043    -359.136
  C     -124.408     182.103    -359.027
  N     -124.497     181.055    -359.883
  C     -123.293     182.180    -358.068
  C     -123.226     183.274    -357.320
  O     -119.188     183.990    -352.860
  O     -120.320     181.823    -353.724
  H     -126.369     186.840    -355.814
  H     -119.596     181.315    -353.276
  H     -122.571     181.368    -358.007
  H     -122.425     183.410    -356.611
  H     -124.379     186.361    -357.292
  H     -125.857     184.735    -355.520
  H     -123.842     184.032    -354.323
  H     -122.961     186.968    -354.506
  H     -125.172     181.134    -360.639
  H     -120.687     185.882    -354.669
  H     -123.706     180.448    -360.070
  H     -121.452     185.726    -353.074
  P     -124.443     184.336    -351.865
  C     -124.251     186.171    -350.023
  O     -124.969     185.054    -350.518
  O     -122.880     184.099    -351.603
  O     -125.155     183.077    -352.245
  H     -122.580     183.291    -352.066
  H     -124.864     186.665    -349.270
  H     -124.040     186.870    -350.833
  H     -123.312     185.834    -349.566
  H     -117.604     183.073    -356.576
  H     -117.788     181.968    -355.235
  H     -117.272     183.612    -354.948

 3  4  5  6  7  8  9  10  11  12  13  23  27  28  29  30  32 0
 6-311+G(2d,p)
 ****
 34  35 0
 6-311+G(2d,p)
 ****
 1  2  14  15  16  17  18  19  20  21  22  24  25  26 0
 3-21G
 ****
 31  33  36  37  38  39  40  41  42  43  44  45  46 0
 3-21G
 ****


