%nproc=1
%NoSave
%Mem=1900MB
#P OB98/GEN NMR

erre ene a

0 1
  C      446.500    1128.158     996.824
  O      446.843    1127.198     995.842
  H      445.660    1128.752     996.444
  H      447.339    1128.804     997.022
  H      446.183    1127.650     997.736
  P      448.118    1126.273     996.137
  C      449.645    1127.965     994.869
  O      449.204    1126.612     995.018
  C      450.810    1128.000     993.879
  O      451.939    1127.292     994.404
  C      450.507    1127.378     992.521
  O      449.720    1128.217     991.668
  C      451.897    1127.133     991.999
  O      452.423    1128.322     991.342
  C      452.709    1126.819     993.275
  N      453.006    1125.398     993.367
  C      453.829    1124.843     992.404
  O      454.331    1125.556     991.505
  N      454.098    1123.517     992.459
  C      453.542    1122.651     993.357
  O      453.755    1121.430     993.321
  C      452.623    1123.226     994.368
  C      452.406    1124.566     994.317
  O      447.607    1124.798     995.752
  O      448.629    1126.333     997.541
  H      447.466    1124.281     996.572
  H      451.789    1128.514     990.605
  H      454.696    1123.141     991.768
  H      452.159    1122.583     995.072
  H      451.725    1124.999     995.046
  H      453.666    1127.352     993.278
  H      451.914    1126.338     991.249
  H      450.010    1126.392     992.678
  H      451.087    1129.074     993.736
  H      449.994    1128.354     995.838
  H      448.800    1128.568     994.520
  P      448.163    1127.818     991.454
  C      448.796    1125.590     990.185
  O      448.137    1126.875     990.162
  O      447.608    1129.246     990.944
  O      447.528    1127.317     992.703
  H      448.303    1129.771     990.483
  H      448.671    1125.108     989.238
  H      448.366    1124.982     990.954
  H      449.839    1125.727     990.380

 6  7  8  9  10  11  12  13  14  15  16  27  31  32  33  34  35 0
 6-311+G(2d,p)
 ****
 36  37 0
 6-311+G(2d,p)
 ****
 1  2  3  4  5  17  18  19  20  21  22  23  24  25 0
 3-21G
 ****
 26  28  29  30  38  39  40  41  42  43  44  45 0
 3-21G
 ****


