%nproc=1
%NoSave
%Mem=1900MB
#P OB98/GEN NMR

erre ene a

0 1
  C     -668.291     -83.083    -448.712
  O     -667.490     -82.175    -447.991
  H     -669.117     -83.417    -448.077
  H     -667.715     -83.961    -449.017
  H     -668.711     -82.598    -449.600
  P     -666.131     -81.662    -448.664
  C     -664.711     -83.696    -447.925
  O     -664.947     -82.303    -447.792
  C     -663.702     -84.150    -446.874
  O     -662.472     -83.406    -446.999
  C     -664.174     -83.925    -445.449
  O     -665.140     -84.890    -445.072
  C     -662.860     -83.983    -444.683
  O     -662.439     -85.336    -444.467
  C     -661.916     -83.262    -445.666
  N     -661.707     -81.851    -445.335
  C     -660.961     -81.605    -444.175
  O     -660.515     -82.536    -443.510
  N     -660.764     -80.294    -443.800
  C     -661.254     -79.323    -444.516
  N     -661.023     -78.058    -444.088
  C     -662.031     -79.551    -445.751
  C     -662.218     -80.834    -446.099
  O     -666.001     -80.186    -448.895
  O     -666.053     -82.493    -450.034
  H     -662.237     -85.698    -445.345
  H     -666.502     -82.003    -450.754
  H     -662.408     -78.724    -446.321
  H     -662.783     -81.082    -446.989
  H     -660.927     -83.766    -445.689
  H     -662.937     -83.500    -443.714
  H     -664.580     -82.912    -445.337
  H     -663.469     -85.213    -447.046
  H     -660.494     -77.947    -443.233
  H     -664.306     -83.862    -448.926
  H     -661.277     -77.235    -444.607
  H     -665.641     -84.259    -447.826
  P     -666.583     -84.438    -444.539
  C     -665.967     -83.413    -442.256
  O     -666.503     -84.532    -442.938
  O     -667.744     -85.145    -445.167
  O     -666.581     -82.857    -444.797
  H     -666.694     -82.649    -445.756
  H     -665.970     -83.602    -441.203
  H     -666.563     -82.549    -442.465
  H     -664.963     -83.242    -442.585

 6  7  8  9  10  11  12  13  14  15  16  26  30  31  32  33  35 0
 6-311+G(2d,p)
 ****
 37  38 0
 6-311+G(2d,p)
 ****
 1  2  3  4  5  17  18  19  20  21  22  23  24  25 0
 3-21G
 ****
 27  28  29  34  36  39  40  41  42  43  44  45  46 0
 3-21G
 ****


