%nproc=1
%NoSave
%Mem=1900MB
#P OB98/GEN NMR

erre ene a

0 1
  C       15.596    -152.189     170.461
  O       16.618    -151.325     170.002
  H       15.815    -153.206     170.118
  H       14.625    -151.886     170.058
  H       15.560    -152.190     171.555
  P       16.487    -149.758     170.307
  C       14.946    -149.237     168.295
  O       16.223    -149.044     168.896
  C       15.098    -149.815     166.887
  O       13.802    -150.073     166.311
  C       15.815    -148.893     165.910
  O       17.206    -148.884     166.159
  C       15.394    -149.511     164.584
  O       16.165    -150.689     164.300
  C       13.919    -149.884     164.879
  N       12.963    -148.880     164.409
  C       12.414    -149.104     163.143
  O       12.750    -150.089     162.483
  N       11.509    -148.193     162.653
  C       11.152    -147.176     163.374
  N       10.252    -146.311     162.834
  C       11.683    -146.924     164.730
  C       12.583    -147.799     165.175
  O       17.593    -149.148     171.112
  O       15.076    -149.627     171.049
  H       15.997    -150.907     163.360
  H       15.193    -149.653     172.018
  H       11.351    -146.069     165.302
  H       13.022    -147.688     166.162
  H       13.663    -150.841     164.411
  H       15.533    -148.830     163.746
  H       15.397    -147.880     165.962
  H       15.619    -150.779     166.973
  H        9.900    -146.539     161.909
  H       14.461    -148.256     168.247
  H        9.783    -145.587     163.361
  H       14.325    -149.899     168.912
  P       17.957    -147.562     166.680
  C       17.143    -146.202     164.651
  O       18.269    -146.694     165.364
  O       19.132    -147.805     167.567
  O       16.791    -146.716     167.379
  H       16.581    -147.090     168.274
  H       17.475    -145.644     163.801
  H       16.565    -145.568     165.291
  H       16.541    -147.024     164.325

 6  7  8  9  10  11  12  13  14  15  16  26  30  31  32  33  35 0
 6-311+G(2d,p)
 ****
 37  38 0
 6-311+G(2d,p)
 ****
 1  2  3  4  5  17  18  19  20  21  22  23  24  25 0
 3-21G
 ****
 27  28  29  34  36  39  40  41  42  43  44  45  46 0
 3-21G
 ****


