%nproc=1
%NoSave
%Mem=1900MB
#P OB98/GEN NMR

erre ene a

0 1
  C      -30.215     -80.466     435.626
  O      -28.984     -80.772     436.246
  P      -27.569     -80.328     435.653
  C      -27.935     -77.923     436.572
  O      -27.591     -78.732     435.450
  C      -26.986     -76.731     436.769
  O      -25.660     -77.220     437.057
  C      -26.880     -75.925     435.471
  O      -27.858     -74.946     435.156
  C      -25.439     -75.426     435.434
  O      -25.309     -74.078     435.894
  C      -24.706     -76.388     436.371
  N      -19.793     -77.281     435.501
  C      -20.372     -76.491     436.475
  N      -19.529     -75.700     437.175
  N      -21.658     -76.468     436.718
  C      -22.381     -77.239     435.872
  C      -21.917     -78.080     434.879
  C      -20.493     -78.123     434.650
  O      -19.944     -78.747     433.742
  N      -22.943     -78.650     434.173
  C      -24.028     -78.132     434.709
  N      -23.740     -77.242     435.716
  O      -26.994     -81.181     434.567
  O      -26.620     -80.492     436.949
  H      -24.362     -73.890     436.002
  H      -25.740     -80.780     436.631
  H      -18.803     -77.200     435.310
  H      -25.043     -78.343     434.385
  H      -24.165     -75.834     437.147
  H      -25.053     -75.441     434.403
  H      -18.560     -75.580     436.917
  H      -26.949     -76.640     434.647
  H      -19.935     -74.987     437.770
  H      -27.278     -76.133     437.635
  H      -27.934     -78.571     437.456
  H      -28.956     -77.552     436.448
  P      -27.994     -74.153     433.776
  C      -29.685     -75.517     432.422
  O      -28.315     -75.210     432.618
  O      -26.500     -73.689     433.433
  O      -28.906     -72.971     433.821
  H      -26.522     -72.928     432.829
  H      -29.761     -76.437     431.843
  H      -30.165     -74.705     431.862
  H      -30.196     -75.646     433.381
  H      -31.017     -80.868     436.209
  H      -30.237     -80.894     434.646
  H      -30.324     -79.404     435.554

 3  4  5  6  7  8  9  10  11  12  23  26  30  31 0
 6-311+G(2d,p)
 ****
 33  35  36  37  38 0
 6-311+G(2d,p)
 ****
 1  2  13  14  15  16  17  18  19  20  21  22  24  25 0
 3-21G
 ****
 27  28  29  32  34  39  40  41  42  43  44  45  46  47  48  49 0
 3-21G
 ****


