%nproc=1
%NoSave
%Mem=1900MB
#P OB98/GEN NMR

erre ene a

0 1
  C      562.397    -676.546     -96.201
  O      562.550    -675.860     -97.426
  H      563.131    -676.159     -95.489
  H      562.584    -677.614     -96.342
  H      561.395    -676.391     -95.791
  P      561.529    -676.168     -98.623
  C      561.058    -675.106    -100.919
  O      562.008    -675.290     -99.880
  C      561.513    -674.011    -101.877
  O      561.365    -672.725    -101.213
  C      562.970    -674.146    -102.324
  O      563.062    -673.747    -103.693
  C      563.703    -673.140    -101.453
  O      564.897    -672.663    -102.063
  C      562.642    -672.055    -101.264
  N      565.337    -668.298     -99.240
  C      565.303    -668.768    -100.537
  N      566.119    -668.165    -101.430
  N      564.527    -669.748    -100.934
  C      563.747    -670.243     -99.937
  C      563.696    -669.865     -98.619
  C      564.568    -668.791     -98.192
  O      564.653    -668.336     -97.057
  N      562.796    -670.638     -97.915
  C      562.311    -671.475     -98.811
  N      562.867    -671.285    -100.049
  O      560.078    -676.018     -98.283
  O      561.881    -677.665     -99.062
  H      564.634    -672.147    -102.853
  H      561.243    -678.296     -98.678
  H      565.964    -667.541     -98.992
  H      561.569    -672.236     -98.614
  H      562.622    -671.337    -102.098
  H      563.968    -673.603    -100.494
  H      566.730    -667.395    -101.203
  H      563.360    -675.160    -102.203
  H      566.094    -668.480    -102.395
  H      560.835    -673.998    -102.736
  H      560.100    -674.829    -100.465
  H      560.930    -676.053    -101.461
  P      563.716    -674.764    -104.750
  C      562.670    -676.286    -106.546
  O      562.663    -674.998    -105.940
  O      564.306    -676.005    -104.168
  O      564.838    -673.865    -105.457
  H      565.580    -674.451    -105.739
  H      561.931    -676.320    -107.319
  H      562.449    -677.029    -105.808
  H      563.635    -676.477    -106.966

 6  7  8  9  10  11  12  13  14  15  26  29  33  34 0
 6-311+G(2d,p)
 ****
 36  38  39  40  41 0
 6-311+G(2d,p)
 ****
 1  2  3  4  5  16  17  18  19  20  21  22  23  24  25 0
 3-21G
 ****
 27  28  30  31  32  35  37  42  43  44  45  46  47 0
 3-21G
 ****
 48  49 0
 3-21G
 ****


