%nproc=1
%NoSave
%Mem=1900MB
#P OB98/GEN NMR

erre ene a

0 1
  C       -5.146      23.089      14.082
  O       -6.092      22.038      13.880
  P       -5.768      20.829      12.876
  C       -4.227      19.069      13.913
  O       -5.577      19.479      13.727
  C       -4.057      18.010      15.009
  O       -3.829      18.629      16.299
  C       -5.245      17.056      15.171
  O       -4.686      15.798      15.561
  C       -6.011      17.687      16.318
  O       -6.913      16.781      16.939
  C       -4.858      18.183      17.201
  N       -5.275      19.241      18.116
  C       -5.911      18.845      19.293
  O       -6.151      17.655      19.499
  N       -6.306      19.809      20.188
  C       -6.165      21.061      19.885
  N       -6.597      21.970      20.801
  C       -5.577      21.527      18.614
  C       -5.149      20.571      17.791
  O       -4.674      21.105      11.897
  O       -7.156      20.585      12.111
  H       -6.397      16.020      17.283
  H       -6.974      20.250      11.213
  H       -5.504      22.581      18.393
  H       -4.698      20.810      16.836
  H       -4.444      17.357      17.794
  H       -6.596      18.537      15.948
  H       -5.846      16.953      14.266
  H       -3.152      17.437      14.771
  H       -7.018      21.610      21.648
  H       -3.630      19.950      14.172
  H       -6.640      22.962      20.618
  H       -3.837      18.686      12.964
  P       -4.752      14.510      14.616
  C       -3.920      15.400      12.367
  O       -3.586      14.669      13.531
  O       -6.101      14.221      14.042
  O       -4.241      13.298      15.533
  H       -4.512      12.453      15.131
  H       -3.006      15.623      11.813
  H       -4.416      16.341      12.628
  H       -4.584      14.804      11.735
  H       -5.542      23.795      14.781
  H       -4.953      23.579      13.151
  H       -4.235      22.680      14.465

 3  4  5  6  7  8  9  10  11  12  13  23  27  28  29  30  32 0
 6-311+G(2d,p)
 ****
 34  35 0
 6-311+G(2d,p)
 ****
 1  2  14  15  16  17  18  19  20  21  22  24  25  26 0
 3-21G
 ****
 31  33  36  37  38  39  40  41  42  43  44  45  46 0
 3-21G
 ****


