%nproc=1
%NoSave
%Mem=1900MB
#P OB98/GEN NMR

erre ene a

0 1
  C      638.742     239.736    -120.542
  O      637.734     240.220    -119.677
  P      637.689     239.816    -118.125
  C      636.787     237.817    -116.775
  O      636.931     238.401    -118.068
  C      635.386     237.234    -116.584
  O      634.401     238.316    -116.597
  C      634.961     236.212    -117.658
  O      634.133     235.258    -116.985
  C      634.135     237.065    -118.597
  O      633.278     236.286    -119.433
  C      633.429     238.004    -117.623
  N      632.919     239.204    -118.275
  C      631.783     239.054    -119.075
  O      631.301     237.930    -119.254
  N      631.253     240.159    -119.681
  C      631.864     241.301    -119.586
  N      631.284     242.366    -120.205
  C      633.133     241.476    -118.866
  C      633.598     240.400    -118.219
  O      637.143     240.860    -117.213
  O      639.206     239.405    -117.798
  H      632.732     236.901    -119.972
  H      639.762     240.212    -117.690
  H      633.638     242.434    -118.859
  H      634.521     240.432    -117.657
  H      632.586     237.490    -117.128
  H      634.802     237.635    -119.263
  H      635.797     235.722    -118.148
  H      635.341     236.770    -115.590
  H      630.404     242.201    -120.679
  H      636.948     238.597    -116.034
  H      631.632     243.313    -120.124
  H      637.553     237.045    -116.631
  P      634.028     233.738    -117.503
  C      632.214     232.310    -118.596
  O      632.686     233.627    -118.368
  O      634.183     232.702    -116.438
  O      635.187     233.622    -118.615
  H      635.367     232.682    -118.790
  H      631.166     232.368    -118.938
  H      632.255     231.714    -117.685
  H      632.811     231.830    -119.373
  H      638.585     240.126    -121.526
  H      638.704     238.667    -120.572
  H      639.700     240.049    -120.183

 3  4  5  6  7  8  9  10  11  12  13  23  27  28  29  30  32 0
 6-311+G(2d,p)
 ****
 34  35 0
 6-311+G(2d,p)
 ****
 1  2  14  15  16  17  18  19  20  21  22  24  25  26 0
 3-21G
 ****
 31  33  36  37  38  39  40  41  42  43  44  45  46 0
 3-21G
 ****


