%nproc=1
%NoSave
%Mem=1900MB
#P OB98/GEN NMR

erre ene a

0 1
  C     -897.270     840.539    -287.605
  O     -896.870     841.899    -287.520
  P     -897.920     843.036    -287.935
  C     -896.780     844.349    -286.034
  O     -897.360     844.406    -287.318
  C     -895.310     844.811    -286.077
  O     -895.210     846.085    -286.747
  C     -894.680     845.033    -284.722
  O     -894.200     843.808    -284.164
  C     -893.480     845.903    -285.108
  O     -892.440     845.123    -285.655
  C     -894.120     846.828    -286.172
  N     -892.950     851.780    -285.568
  C     -892.240     850.728    -286.057
  N     -892.610     849.454    -286.171
  C     -893.860     849.245    -285.689
  C     -894.690     850.221    -285.113
  C     -894.200     851.533    -285.085
  N     -894.970     852.594    -284.580
  N     -895.880     849.650    -284.725
  C     -895.780     848.370    -285.057
  N     -894.570     848.082    -285.665
  O     -899.180     842.701    -287.029
  O     -898.270     843.058    -289.388
  H     -891.680     845.720    -285.807
  H     -900.000     843.054    -287.432
  H     -891.250     850.974    -286.396
  H     -896.560     847.622    -284.888
  H     -893.410     847.033    -286.996
  H     -893.070     846.455    -284.248
  H     -895.350     845.554    -284.037
  H     -894.750     844.074    -286.667
  H     -896.800     843.316    -285.648
  H     -894.610     853.523    -284.749
  H     -895.960     852.435    -284.388
  H     -897.360     844.995    -285.339
  P     -894.910     843.328    -282.777
  C     -894.380     840.856    -283.344
  O     -894.240     841.914    -282.442
  O     -896.400     842.930    -283.292
  O     -894.920     844.359    -281.709
  H     -897.050     843.012    -282.548
  H     -893.620     840.088    -283.119
  H     -894.250     841.185    -284.395
  H     -895.370     840.395    -283.256
  H     -896.462     839.910    -287.296
  H     -897.536     840.308    -288.615
  H     -898.114     840.375    -286.968

 3  4  5  6  7  8  9  10  11  12  22  25  29  30  31  32 0
 6-311+G(2d,p)
 ****
 33  36  37 0
 6-311+G(2d,p)
 ****
 1  2  13  14  15  16  17  18  19  20  21  23  24  26 0
 3-21G
 ****
 27  28  34  35  38  39  40  41  42  43  44  45  46  47  48 0
 3-21G
 ****


