%nproc=1
%NoSave
%Mem=1900MB
#P OB98/GEN NMR

erre ene a

0 1
  C        9.971     330.606     157.102
  O       11.083     330.090     156.408
  H        9.085     330.032     156.815
  H        9.803     331.654     156.841
  H       10.115     330.507     158.182
  P       12.486     330.867     156.496
  C       12.272     332.294     154.374
  O       12.212     332.295     155.797
  C       12.359     333.715     153.816
  O       12.523     333.665     152.373
  C       11.127     334.579     154.114
  O       11.544     335.861     154.586
  C       10.446     334.712     152.757
  O        9.626     335.874     152.677
  C       11.658     334.672     151.818
  N       11.295     334.369     150.436
  C       10.937     335.456     149.631
  O       10.903     336.595     150.109
  N       10.591     335.229     148.326
  C       10.554     334.015     147.872
  N       10.192     333.852     146.574
  C       10.877     332.836     148.697
  C       11.243     333.081     149.953
  O       13.654     330.113     155.947
  O       12.639     331.249     158.041
  H        8.986     335.752     151.943
  H       13.589     331.438     158.241
  H       10.823     331.839     148.276
  H       11.510     332.274     150.631
  H       12.192     335.631     151.830
  H        9.810     333.833     152.576
  H       10.459     334.136     154.848
  H       13.276     334.182     154.208
  H        9.975     334.689     146.037
  H       11.380     331.789     153.986
  H       10.120     332.955     146.115
  H       13.165     331.735     154.067
  P       11.415     336.105     156.170
  C        9.379     337.699     156.066
  O        9.878     336.442     156.493
  O       12.172     337.497     156.387
  O       12.016     335.010     156.996
  H       13.073     337.343     156.728
  H        8.350     337.788     156.346
  H        9.467     337.775     155.002
  H        9.943     338.482     156.528

 6  7  8  9  10  11  12  13  14  15  16  26  30  31  32  33  35 0
 6-311+G(2d,p)
 ****
 37  38 0
 6-311+G(2d,p)
 ****
 1  2  3  4  5  17  18  19  20  21  22  23  24  25 0
 3-21G
 ****
 27  28  29  34  36  39  40  41  42  43  44  45  46 0
 3-21G
 ****


