%nproc=1
%NoSave
%Mem=1900MB
#P OB98/GEN NMR

erre ene a

0 1
  C      539.895     445.063    -893.431
  O      540.000     443.704    -893.071
  H      540.573     445.259    -894.261
  H      540.178     445.697    -892.581
  H      538.877     445.312    -893.741
  P      538.869     443.067    -892.131
  C      537.531     441.928    -894.021
  O      537.536     442.930    -893.021
  C      536.228     441.955    -894.831
  O      535.125     441.514    -893.981
  C      535.894     443.382    -895.271
  O      535.141     443.410    -896.481
  C      535.018     443.899    -894.131
  O      534.203     445.000    -894.511
  C      534.249     442.644    -893.751
  N      530.632     444.063    -890.471
  C      530.796     444.412    -891.801
  N      529.870     445.265    -892.311
  N      531.768     443.969    -892.561
  C      532.636     443.179    -891.881
  C      532.615     442.787    -890.571
  C      531.502     443.247    -889.751
  O      531.322     443.000    -888.561
  N      533.688     442.009    -890.241
  C      534.383     441.932    -891.361
  N      533.782     442.617    -892.391
  O      538.490     444.252    -891.121
  O      539.264     441.824    -891.391
  H      533.508     444.665    -895.111
  H      538.127     443.886    -890.291
  H      529.852     444.422    -889.941
  H      535.323     441.388    -891.481
  H      533.382     442.517    -894.401
  H      535.681     444.251    -893.331
  H      529.222     445.755    -891.741
  H      536.799     443.993    -895.401
  H      530.132     445.749    -893.181
  H      536.287     441.249    -895.671
  H      537.632     440.966    -893.521
  H      538.389     442.052    -894.691
  P      535.570     444.468    -897.601
  C      537.040     442.899    -899.131
  O      536.983     443.969    -898.211
  O      535.951     445.787    -896.761
  O      534.529     444.734    -898.621
  H      535.255     446.459    -896.861
  H      538.057     442.725    -899.412
  H      536.467     443.145    -900.000
  H      536.639     442.017    -898.677

 6  7  8  9  10  11  12  13  14  15  26  29  33  34 0
 6-311+G(2d,p)
 ****
 36  38  39  40  41 0
 6-311+G(2d,p)
 ****
 1  2  3  4  5  16  17  18  19  20  21  22  23  24  25 0
 3-21G
 ****
 27  28  30  31  32  35  37  42  43  44  45  46  47 0
 3-21G
 ****
 48  49 0
 3-21G
 ****


