%nproc=1
%NoSave
%Mem=1900MB
#P OB98/GEN NMR

erre ene a

0 1
  C     -397.100     -68.265     -58.355
  O     -395.747     -68.218     -58.766
  H     -397.334     -67.340     -57.820
  H     -397.269     -69.109     -57.681
  H     -397.759     -68.341     -59.223
  P     -395.132     -69.497     -59.506
  C     -396.226     -68.994     -61.796
  O     -396.155     -69.876     -60.680
  C     -397.033     -69.624     -62.928
  O     -396.984     -68.792     -64.105
  C     -396.525     -70.995     -63.366
  O     -396.887     -71.984     -62.426
  C     -397.190     -71.113     -64.729
  O     -398.572     -71.480     -64.598
  C     -397.059     -69.664     -65.257
  N     -395.907     -69.465     -66.134
  C     -396.160     -68.813     -67.346
  O     -397.305     -68.455     -67.629
  N     -395.112     -68.604     -68.208
  C     -393.915     -68.968     -67.875
  N     -392.921     -68.728     -68.771
  C     -393.600     -69.627     -66.593
  C     -394.633     -69.853     -65.784
  O     -394.746     -70.648     -58.628
  O     -393.870     -68.912     -60.301
  H     -398.998     -70.762     -64.090
  H     -393.056     -69.011     -59.772
  H     -392.583     -69.904     -66.352
  H     -394.487     -70.332     -64.820
  H     -397.961     -69.376     -65.811
  H     -396.719     -71.869     -65.357
  H     -395.441     -70.968     -63.515
  H     -398.081     -69.677     -62.608
  H     -393.183     -68.255     -69.631
  H     -395.198     -68.808     -62.126
  H     -391.941     -68.819     -68.556
  H     -396.673     -68.037     -61.503
  P     -396.113     -73.386     -62.343
  C     -394.572     -73.034     -60.315
  O     -394.666     -73.050     -61.733
  O     -396.094     -74.175     -63.607
  O     -396.832     -74.143     -61.130
  H     -397.704     -74.508     -61.420
  H     -393.568     -72.800     -60.027
  H     -394.839     -73.995     -59.929
  H     -395.237     -72.294     -59.922

 6  7  8  9  10  11  12  13  14  15  16  26  30  31  32  33  35 0
 6-311+G(2d,p)
 ****
 37  38 0
 6-311+G(2d,p)
 ****
 1  2  3  4  5  17  18  19  20  21  22  23  24  25 0
 3-21G
 ****
 27  28  29  34  36  39  40  41  42  43  44  45  46 0
 3-21G
 ****


