%nproc=1
%NoSave
%Mem=1900MB
#P OB98/GEN NMR

erre ene a

0 1
  C       34.716     493.373     344.681
  O       33.693     493.336     345.696
  P       33.807     494.322     346.954
  C       35.183     492.827     348.581
  O       35.133     494.011     347.798
  C       36.610     492.549     349.080
  O       37.102     493.687     349.863
  C       36.745     491.309     349.979
  O       38.047     490.748     349.746
  C       36.684     491.905     351.380
  O       37.224     491.055     352.377
  C       37.488     493.199     351.165
  N       37.281     494.214     352.196
  C       37.658     493.903     353.490
  O       38.099     492.817     353.853
  N       37.489     494.911     354.416
  C       36.951     496.143     354.173
  O       36.789     496.988     355.050
  C       36.539     496.399     352.793
  C       36.723     495.438     351.882
  O       32.644     493.772     347.914
  O       33.578     495.774     346.653
  H       37.252     491.559     353.207
  H       32.123     494.516     348.266
  H       37.772     494.713     355.358
  H       36.109     497.368     352.552
  H       36.447     495.612     350.839
  H       38.555     492.960     351.099
  H       35.647     492.115     351.636
  H       35.967     490.560     349.797
  H       37.268     492.468     348.203
  H       34.851     491.978     347.976
  H       34.503     492.920     349.432
  P       38.154     489.170     349.443
  C       38.848     488.573     351.902
  O       37.925     488.411     350.844
  O       39.734     489.032     349.203
  O       37.332     488.692     348.288
  H       40.261     489.510     349.871
  H       39.178     489.607     351.984
  H       39.713     487.927     351.722
  H       38.365     488.275     352.833
  H       34.488     492.657     343.919
  H       35.663     493.137     345.120
  H       34.756     494.352     344.251

 3  4  5  6  7  8  9  10  11  12  13  23  28  29  30  31  32 0
 6-311+G(2d,p)
 ****
 33  34 0
 6-311+G(2d,p)
 ****
 1  2  14  15  16  17  18  19  20  21  22  24  25  26 0
 3-21G
 ****
 27  35  36  37  38  39  40  41  42  43  44  45 0
 3-21G
 ****


