%nproc=1
%NoSave
%Mem=1900MB
#P OB98/GEN NMR

erre ene a

0 1
  C        1.416     -53.580      92.594
  O        2.150     -54.697      92.136
  H        1.802     -53.284      93.574
  H        0.361     -53.844      92.700
  H        1.520     -52.733      91.910
  P        1.974     -55.168      90.615
  C        3.059     -53.382      89.104
  O        3.241     -54.600      89.809
  C        4.318     -52.514      89.188
  O        4.653     -52.318      90.596
  C        5.555     -53.136      88.506
  O        6.350     -52.057      87.997
  C        6.233     -53.805      89.687
  O        7.553     -54.177      89.391
  C        6.028     -52.725      90.752
  N        6.296     -53.186      92.109
  C        7.555     -52.923      92.637
  O        8.436     -52.310      92.036
  N        7.783     -53.403      93.899
  C        6.898     -54.108      94.660
  O        7.147     -54.497      95.795
  C        5.593     -54.380      94.037
  C        5.355     -53.914      92.809
  O        0.649     -54.877      89.995
  O        2.264     -56.742      90.672
  H        1.419     -57.229      90.708
  H        8.013     -54.485      90.201
  H        8.691     -53.221      94.298
  H        4.876     -54.956      94.606
  H        4.405     -54.096      92.317
  H        6.649     -51.849      90.542
  H        5.702     -54.722      89.959
  H        5.296     -53.817      87.691
  H        4.096     -51.524      88.774
  H        2.213     -52.850      89.550
  H        2.828     -53.603      88.056
  P        6.336     -51.602      86.458
  C        4.584     -49.711      86.487
  O        5.960     -50.044      86.366
  O        5.487     -52.469      85.585
  O        7.865     -51.655      85.984
  H        7.903     -51.948      85.053
  H        4.466     -48.650      86.409
  H        4.219     -50.042      87.437
  H        4.031     -50.190      85.706

 6  7  8  9  10  11  12  13  14  15  16  27  31  32  33  34  35 0
 6-311+G(2d,p)
 ****
 36  37 0
 6-311+G(2d,p)
 ****
 1  2  3  4  5  17  18  19  20  21  22  23  24  25 0
 3-21G
 ****
 26  28  29  30  38  39  40  41  42  43  44  45 0
 3-21G
 ****


