%nproc=1
%NoSave
%Mem=1900MB
#P OB98/GEN NMR

erre ene a

0 1
  C     -104.700    -145.590    -148.986
  O     -105.780    -145.435    -149.891
  P     -107.046    -146.405    -149.732
  C     -108.150    -144.372    -148.552
  O     -108.005    -145.785    -148.604
  C     -109.541    -143.987    -148.048
  O     -109.554    -142.582    -147.681
  C     -110.648    -144.195    -149.086
  O     -111.860    -144.577    -148.417
  C     -110.865    -142.808    -149.655
  O     -112.167    -142.672    -150.224
  C     -110.622    -141.949    -148.415
  N     -112.272    -137.662    -150.519
  C     -112.988    -138.769    -150.109
  N     -114.311    -138.762    -150.376
  N     -112.454    -139.786    -149.486
  C     -111.118    -139.656    -149.292
  C     -110.305    -138.601    -149.641
  C     -110.907    -137.488    -150.339
  O     -110.325    -136.491    -150.754
  N     -109.010    -138.817    -149.247
  C     -109.026    -140.016    -148.700
  N     -110.275    -140.581    -148.737
  O     -106.418    -147.696    -149.024
  O     -107.715    -146.770    -151.013
  H     -112.288    -141.727    -150.431
  H     -106.336    -148.422    -149.670
  H     -112.728    -136.907    -151.006
  H     -108.167    -140.529    -148.290
  H     -111.502    -141.927    -147.762
  H     -110.126    -142.605    -150.438
  H     -114.770    -138.040    -150.910
  H     -110.413    -144.933    -149.860
  H     -114.850    -139.582    -150.125
  H     -109.754    -144.557    -147.136
  H     -108.007    -143.963    -149.553
  H     -107.381    -143.949    -147.896
  P     -112.847    -145.538    -149.244
  C     -111.328    -147.577    -148.688
  O     -111.962    -146.798    -149.682
  O     -113.076    -144.740    -150.612
  O     -114.127    -145.850    -148.544
  H     -113.928    -144.996    -151.013
  H     -111.738    -148.590    -148.716
  H     -111.470    -147.165    -147.684
  H     -110.257    -147.621    -148.900
  H     -103.936    -144.877    -149.217
  H     -104.302    -146.580    -149.072
  H     -105.047    -145.430    -147.986

 3  4  5  6  7  8  9  10  11  12  23  26  30  31 0
 6-311+G(2d,p)
 ****
 33  35  36  37  38 0
 6-311+G(2d,p)
 ****
 1  2  13  14  15  16  17  18  19  20  21  22  24  25 0
 3-21G
 ****
 27  28  29  32  34  39  40  41  42  43  44  45  46  47  48  49 0
 3-21G
 ****


