%nproc=1
%NoSave
%Mem=1900MB
#P OB98/GEN NMR

erre ene a

0 1
  C     -183.647    -219.815      36.225
  O     -184.012    -220.752      37.222
  P     -183.568    -220.550      38.742
  C     -182.240    -222.815      38.805
  O     -182.256    -221.419      39.004
  C     -180.832    -223.345      39.109
  O     -179.966    -223.131      37.978
  C     -180.217    -222.641      40.316
  O     -180.442    -223.387      41.500
  C     -178.752    -222.543      39.933
  O     -178.077    -223.786      40.203
  C     -178.848    -222.307      38.404
  N     -179.085    -220.931      37.928
  C     -178.614    -220.545      36.676
  O     -178.025    -221.298      35.908
  N     -178.825    -219.230      36.340
  C     -179.486    -218.311      37.101
  O     -179.458    -217.098      36.906
  C     -180.189    -218.843      38.273
  C     -179.940    -220.100      38.639
  O     -184.700    -221.334      39.557
  O     -183.439    -219.131      39.190
  H     -177.145    -223.667      39.949
  H     -185.370    -220.715      39.898
  H     -178.363    -218.909      35.495
  H     -180.837    -218.181      38.828
  H     -180.419    -220.508      39.526
  H     -177.947    -222.673      37.895
  H     -178.239    -221.783      40.519
  H     -180.623    -221.623      40.410
  H     -180.891    -224.426      39.289
  H     -182.521    -223.050      37.773
  H     -182.975    -223.295      39.458
  P     -179.978    -222.792      42.912
  C     -178.563    -224.928      42.999
  O     -178.597    -223.536      43.248
  O     -181.006    -222.822      43.994
  O     -179.540    -221.293      42.550
  H     -180.271    -220.675      42.758
  H     -177.533    -225.277      43.097
  H     -178.918    -225.148      41.989
  H     -179.183    -225.450      43.734
  H     -184.039    -220.129      35.280
  H     -182.580    -219.754      36.166
  H     -184.046    -218.854      36.475

 3  4  5  6  7  8  9  10  11  12  13  23  28  29  30  31  32 0
 6-311+G(2d,p)
 ****
 33  34 0
 6-311+G(2d,p)
 ****
 1  2  14  15  16  17  18  19  20  21  22  24  25  26  27 0
 3-21G
 ****
 35  36  37  38  39  40  41  42  43  44  45 0
 3-21G
 ****


