%nproc=1
%NoSave
%Mem=1900MB
#P OB98/GEN NMR

erre ene a

0 1
  C     -293.195    -801.581     462.003
  O     -293.304    -800.501     462.907
  P     -293.705    -799.022     462.472
  C     -292.981    -797.317     460.625
  O     -292.718    -798.531     461.308
  C     -291.755    -796.821     459.860
  O     -290.750    -796.380     460.834
  C     -291.089    -797.963     459.064
  O     -290.637    -797.578     457.774
  C     -290.029    -798.509     460.018
  O     -288.989    -799.250     459.391
  C     -289.598    -797.222     460.754
  N     -286.977    -795.237     464.658
  C     -287.526    -794.589     463.563
  N     -287.177    -793.295     463.382
  N     -288.324    -795.188     462.695
  C     -288.472    -796.520     462.920
  C     -287.975    -797.250     463.970
  C     -287.150    -796.585     464.941
  O     -286.548    -797.136     465.876
  N     -288.314    -798.573     463.857
  C     -288.952    -798.663     462.704
  N     -289.056    -797.430     462.084
  O     -294.018    -798.063     463.580
  O     -295.089    -799.297     461.653
  H     -288.531    -799.731     460.074
  H     -295.673    -798.506     461.817
  H     -286.311    -794.741     465.241
  H     -289.355    -799.575     462.261
  H     -288.820    -796.698     460.198
  H     -290.540    -799.185     460.717
  H     -286.462    -792.852     463.942
  H     -291.813    -798.766     458.862
  H     -287.355    -792.877     462.474
  H     -292.016    -795.969     459.225
  H     -293.265    -796.577     461.399
  H     -293.836    -797.434     459.944
  P     -290.512    -798.476     456.430
  C     -288.748    -799.975     455.344
  O     -289.187    -799.375     456.540
  O     -290.151    -797.443     455.261
  O     -291.764    -799.248     456.086
  H     -290.634    -797.696     454.450
  H     -288.020    -800.789     455.588
  H     -288.243    -799.240     454.719
  H     -289.583    -800.449     454.815
  H     -292.914    -802.465     462.536
  H     -292.451    -801.357     461.267
  H     -294.137    -801.739     461.521

 3  4  5  6  7  8  9  10  11  12  23  26  30  31 0
 6-311+G(2d,p)
 ****
 33  35  36  37  38 0
 6-311+G(2d,p)
 ****
 1  2  13  14  15  16  17  18  19  20  21  22  24  25 0
 3-21G
 ****
 27  28  29  32  34  39  40  41  42  43  44  45  46  47  48  49 0
 3-21G
 ****


