%nproc=1
%NoSave
%Mem=1900MB
#P OB98/GEN NMR

erre ene a

0 1
  C       41.196     808.724    -193.349
  O       40.511     809.961    -193.410
  H       40.482     807.892    -193.427
  H       41.891     808.665    -194.191
  H       41.760     808.642    -192.416
  P       39.457     810.256    -192.231
  C       40.945     811.957    -190.957
  O       40.321     810.677    -190.949
  C       40.405     812.819    -189.821
  O       40.386     812.063    -188.590
  C       41.228     814.069    -189.519
  O       40.933     815.116    -190.436
  C       40.740     814.393    -188.117
  O       39.459     815.055    -188.193
  C       40.574     813.003    -187.498
  N       42.842     813.284    -182.914
  C       41.647     813.746    -183.367
  N       41.106     813.619    -184.592
  C       41.913     812.900    -185.393
  C       43.144     812.341    -185.065
  C       43.610     812.561    -183.754
  N       44.855     812.132    -183.332
  N       43.683     811.682    -186.161
  C       42.803     811.865    -187.126
  N       41.722     812.587    -186.710
  O       38.921     808.779    -191.861
  O       38.334     811.169    -192.598
  H       39.190     815.263    -187.276
  H       38.080     808.622    -192.326
  H       41.064     814.316    -182.637
  H       42.921     811.500    -188.140
  H       39.683     812.932    -186.851
  H       41.416     815.066    -187.572
  H       42.300     813.845    -189.482
  H       39.369     813.077    -190.065
  H       40.744     812.453    -191.915
  H       45.262     812.719    -182.601
  H       45.485     811.837    -184.077
  H       42.029     811.814    -190.853
  P       41.994     816.311    -190.559
  C       43.256     815.332    -192.594
  O       43.322     815.687    -191.221
  O       42.419     816.580    -189.027
  O       41.478     817.562    -191.200
  H       42.252     817.507    -188.798
  H       44.199     814.933    -192.905
  H       43.027     816.200    -193.176
  H       42.493     814.596    -192.736

 6  7  8  9  10  11  12  13  14  15  25  28  32  33  34  35 0
 6-311+G(2d,p)
 ****
 36  39  40 0
 6-311+G(2d,p)
 ****
 1  2  3  4  5  16  17  18  19  20  21  22  23  24 0
 3-21G
 ****
 26  27  29  30  31  37  38  41  42  43  44  45  46  47  48 0
 3-21G
 ****


