%nproc=1
%NoSave
%Mem=1900MB
#P OB98/GEN NMR

erre ene a

0 1
  C     -772.280     -44.629     548.522
  O     -771.215     -44.052     547.788
  H     -773.018     -45.023     547.823
  H     -772.754     -43.868     549.146
  H     -771.915     -45.449     549.149
  P     -769.905     -43.619     548.599
  C     -769.672     -41.390     547.283
  O     -769.078     -42.628     547.639
  C     -769.205     -40.964     545.895
  O     -767.744     -40.970     545.879
  C     -769.673     -41.893     544.764
  O     -769.941     -41.083     543.602
  C     -768.464     -42.761     544.497
  O     -768.432     -43.325     543.200
  C     -767.324     -41.754     544.743
  N     -766.048     -42.411     545.000
  C     -765.290     -42.783     543.881
  O     -765.578     -42.530     542.723
  N     -764.144     -43.490     544.165
  C     -763.709     -43.863     545.408
  O     -762.676     -44.506     545.589
  C     -764.554     -43.441     546.532
  C     -765.670     -42.755     546.282
  O     -769.024     -44.956     548.594
  O     -770.144     -43.094     549.974
  H     -769.234     -45.508     549.376
  H     -768.737     -42.640     542.568
  H     -763.586     -43.772     543.379
  H     -764.250     -43.733     547.533
  H     -766.319     -42.445     547.086
  H     -767.235     -41.077     543.889
  H     -768.428     -43.577     545.232
  H     -770.567     -42.476     545.008
  H     -769.520     -39.925     545.713
  H     -769.383     -40.619     548.013
  H     -770.767     -41.494     547.304
  P     -771.445     -40.565     543.397
  C     -770.867     -40.615     540.845
  O     -771.485     -39.938     541.924
  O     -771.468     -39.306     544.379
  O     -772.468     -41.606     543.690
  H     -770.623     -38.826     544.408
  H     -770.997     -40.048     539.947
  H     -771.315     -41.579     540.726
  H     -769.822     -40.729     541.047

 6  7  8  9  10  11  12  13  14  15  16  27  31  32  33  34  35 0
 6-311+G(2d,p)
 ****
 36  37 0
 6-311+G(2d,p)
 ****
 1  2  3  4  5  17  18  19  20  21  22  23  24  25 0
 3-21G
 ****
 26  28  29  30  38  39  40  41  42  43  44  45 0
 3-21G
 ****


