%nproc=1
%NoSave
%Mem=1900MB
#P OB98/GEN NMR

erre ene a

0 1
  C     1248.156    -110.366    -298.034
  O     1247.739    -110.652    -299.363
  P     1246.149    -110.709    -299.643
  C     1246.668    -111.268    -302.122
  O     1245.992    -111.647    -300.946
  C     1246.679    -112.423    -303.147
  O     1247.738    -113.331    -302.828
  C     1245.397    -113.249    -303.152
  O     1244.362    -112.639    -303.897
  C     1245.897    -114.533    -303.822
  O     1245.879    -114.357    -305.257
  C     1247.330    -114.657    -303.297
  N     1247.933    -119.526    -302.037
  C     1247.831    -118.945    -303.286
  N     1247.953    -119.760    -304.350
  N     1247.657    -117.640    -303.473
  C     1247.600    -116.947    -302.324
  C     1247.681    -117.414    -301.012
  C     1247.832    -118.855    -300.828
  O     1247.853    -119.432    -299.753
  N     1247.594    -116.386    -300.121
  C     1247.507    -115.301    -300.854
  N     1247.479    -115.596    -302.206
  O     1245.829    -109.241    -300.209
  O     1245.316    -111.048    -298.457
  H     1246.215    -115.185    -305.651
  H     1244.894    -109.028    -300.048
  H     1248.083    -120.524    -301.949
  H     1247.477    -114.296    -300.467
  H     1248.021    -114.931    -304.098
  H     1245.266    -115.384    -303.609
  H     1248.225    -120.734    -304.274
  H     1245.079    -113.490    -302.124
  H     1247.930    -119.354    -305.278
  H     1246.865    -112.011    -304.143
  H     1247.714    -111.015    -301.900
  H     1246.182    -110.393    -302.552
  P     1242.857    -113.093    -303.557
  C     1241.970    -112.065    -305.771
  O     1242.139    -113.219    -304.991
  O     1242.215    -111.785    -302.909
  O     1242.772    -114.286    -302.668
  H     1241.467    -112.034    -302.316
  H     1242.823    -111.381    -305.665
  H     1241.053    -111.546    -305.451
  H     1241.874    -112.359    -306.831
  H     1249.225    -110.359    -297.989
  H     1247.777    -111.116    -297.372
  H     1247.780    -109.408    -297.741

 3  4  5  6  7  8  9  10  11  12  23  26  30  31  33  0
 6-311+G(2d,p)
 ****
 35  36  37  38 0
 6-311+G(2d,p)
 ****
 1  2  13  14  15  16  17  18  19  20  21  22  24  25  27  28  29 0
 3-21G
 ****
 32  34  39  40  41  42  43  44  45  46  47  48  49 0
 3-21G
 ****


