%nproc=1
%NoSave
%Mem=1900MB
#P OB98/GEN NMR

erre ene a

0 1
  C     1279.268    -387.384      99.353
  O     1280.204    -386.897      98.406
  P     1281.045    -385.543      98.668
  C     1280.223    -383.269      99.538
  O     1279.911    -384.385      98.719
  C     1278.953    -382.628     100.067
  O     1278.155    -383.682     100.683
  C     1279.096    -381.576     101.136
  O     1279.362    -380.268     100.663
  C     1277.731    -381.602     101.803
  O     1276.793    -380.871     100.997
  C     1277.393    -383.080     101.790
  N     1275.566    -384.820     106.236
  C     1274.967    -384.231     105.192
  N     1275.519    -383.786     104.027
  C     1276.856    -384.027     104.018
  C     1277.589    -384.613     105.038
  C     1276.893    -385.052     106.180
  N     1277.513    -385.658     107.245
  N     1278.929    -384.689     104.658
  C     1278.970    -384.164     103.472
  N     1277.741    -383.752     103.027
  O     1282.164    -385.327      97.705
  O     1281.514    -385.664     100.195
  H     1276.987    -379.931     101.138
  H     1282.234    -385.011     100.345
  H     1273.895    -384.091     105.264
  H     1279.865    -384.052     102.847
  H     1276.333    -383.286     101.554
  H     1277.714    -381.141     102.796
  H     1279.858    -381.852     101.908
  H     1278.367    -382.256      99.200
  H     1280.743    -382.536      98.917
  H     1276.913    -386.029     107.992
  H     1278.482    -385.959     107.137
  H     1280.888    -383.559     100.344
  P     1280.406    -379.358     101.466
  C     1280.204    -377.901     103.632
  O     1279.570    -378.657     102.629
  O     1281.227    -378.436     100.640
  O     1281.293    -380.445     102.260
  H     1280.800    -380.955     102.937
  H     1279.430    -377.363     104.213
  H     1280.847    -377.138     103.158
  H     1280.782    -378.517     104.288
  H     1278.825    -388.286      98.985
  H     1278.505    -386.650      99.510
  H     1279.767    -387.583     100.278

 3  4  5  6  7  8  9  10  11  12  22  25  29  30  31  32 0
 6-311+G(2d,p)
 ****
 33  36  37 0
 6-311+G(2d,p)
 ****
 1  2  13  14  15  16  17  18  19  20  21  23  24  26 0
 3-21G
 ****
 27  28  34  35  38  39  40  41  42  43  44  45  46  47  48 0
 3-21G
 ****


