%nproc=1
%NoSave
%Mem=1900MB
#P OB98/GEN NMR

erre ene a

0 1
  C     -552.325     227.427     -80.912
  O     -552.569     226.097     -81.332
  H     -552.548     227.509     -79.844
  H     -552.976     228.116     -81.462
  H     -551.275     227.695     -81.076
  P     -552.081     225.715     -82.807
  C     -552.760     226.433     -85.241
  O     -553.031     226.500     -83.846
  C     -553.623     227.443     -85.992
  O     -553.304     228.793     -85.586
  C     -553.402     227.463     -87.499
  O     -553.954     226.334     -88.139
  C     -554.096     228.767     -87.870
  O     -555.506     228.591     -88.039
  C     -553.801     229.659     -86.636
  N     -552.868     230.727     -86.953
  C     -553.278     231.591     -87.980
  O     -554.371     231.424     -88.530
  N     -552.425     232.587     -88.381
  C     -551.255     232.698     -87.829
  N     -550.441     233.692     -88.293
  C     -550.784     231.809     -86.743
  C     -551.631     230.851     -86.357
  O     -552.560     224.197     -82.948
  O     -550.621     225.921     -83.061
  H     -555.849     229.443     -88.390
  H     -553.489     224.052     -82.690
  H     -549.805     231.951     -86.306
  H     -551.369     230.155     -85.573
  H     -554.725     230.111     -86.258
  H     -553.705     229.177     -88.808
  H     -552.329     227.565     -87.724
  H     -554.676     227.245     -85.745
  H     -550.785     234.239     -89.073
  H     -552.947     225.422     -85.621
  H     -549.489     233.819     -87.993
  H     -551.697     226.653     -85.386
  P     -554.249     226.329     -89.716
  C     -555.873     227.570     -91.292
  O     -555.560     227.241     -89.939
  O     -554.320     224.981     -90.354
  O     -553.089     227.269     -90.300
  H     -553.083     228.182     -89.953
  H     -556.756     228.174     -91.317
  H     -556.039     226.671     -91.848
  H     -555.058     228.112     -91.725

 6  7  8  9  10  11  12  13  14  15  16  26  30  31  32  33  35 0
 6-311+G(2d,p)
 ****
 37  38 0
 6-311+G(2d,p)
 ****
 1  2  3  4  5  17  18  19  20  21  22  23  24  25 0
 3-21G
 ****
 27  28  29  34  36  39  40  41  42  43  44  45  46 0
 3-21G
 ****


