%nproc=1
%NoSave
%Mem=1900MB
#P OB98/GEN NMR

erre ene a

0 1
  C      -55.048      13.395     318.365
  O      -55.961      13.674     319.407
  H      -54.375      12.600     318.693
  H      -54.457      14.285     318.137
  H      -55.581      13.061     317.471
  P      -57.161      14.688     319.062
  C      -55.816      16.897     319.512
  O      -56.450      16.042     318.577
  C      -56.286      18.342     319.324
  O      -55.778      18.836     318.059
  C      -57.808      18.499     319.306
  O      -58.147      19.722     319.961
  C      -58.141      18.590     317.829
  O      -59.382      19.261     317.602
  C      -56.895      19.300     317.274
  N      -56.693      19.039     315.850
  C      -56.902      20.115     314.979
  O      -57.263      21.208     315.415
  N      -56.744      19.916     313.632
  C      -56.471      18.725     313.183
  N      -56.346      18.590     311.834
  C      -56.290      17.551     314.062
  C      -56.407      17.781     315.369
  O      -57.712      15.047     320.522
  O      -58.186      14.131     318.132
  H      -59.337      20.137     318.047
  H      -57.010      15.185     321.181
  H      -56.080      16.579     313.639
  H      -56.281      16.975     316.088
  H      -56.975      20.385     317.418
  H      -58.222      17.583     317.401
  H      -58.335      17.670     319.784
  H      -55.832      18.959     320.108
  H      -56.494      19.415     311.264
  H      -54.728      16.850     319.391
  H      -56.187      17.705     311.374
  H      -56.065      16.546     320.519
  P      -58.179      19.771     321.563
  C      -60.747      19.908     321.773
  O      -59.575      19.165     322.074
  O      -57.798      21.077     322.180
  O      -57.137      18.621     321.975
  H      -56.637      18.940     322.758
  H      -61.602      19.400     322.166
  H      -60.846      20.004     320.712
  H      -60.676      20.880     322.214

 6  7  8  9  10  11  12  13  14  15  16  26  30  31  32  33  35 0
 6-311+G(2d,p)
 ****
 37  38 0
 6-311+G(2d,p)
 ****
 1  2  3  4  5  17  18  19  20  21  22  23  24  25 0
 3-21G
 ****
 27  28  29  34  36  39  40  41  42  43  44  45  46 0
 3-21G
 ****


