%nproc=1
%NoSave
%Mem=1900MB
#P OB98/GEN NMR

erre ene a

0 1
  C     -115.193    -866.503    -407.128
  O     -113.985    -867.167    -407.460
  P     -114.072    -868.595    -408.166
  C     -111.766    -868.336    -409.344
  O     -112.553    -869.080    -408.421
  C     -110.318    -868.251    -408.849
  O     -109.870    -869.540    -408.389
  C     -109.325    -867.854    -409.937
  O     -109.302    -866.439    -410.150
  C     -108.027    -868.320    -409.315
  O     -107.556    -867.359    -408.342
  C     -108.431    -869.618    -408.625
  N     -104.765    -872.198    -410.991
  C     -104.693    -871.153    -410.099
  N     -103.434    -870.673    -409.851
  N     -105.699    -870.602    -409.498
  C     -106.886    -871.170    -409.845
  C     -107.116    -872.214    -410.736
  C     -105.971    -872.802    -411.389
  O     -105.994    -873.691    -412.235
  N     -108.450    -872.527    -410.824
  C     -109.039    -871.667    -410.016
  N     -108.145    -870.799    -409.434
  O     -114.603    -868.264    -409.630
  O     -114.938    -869.594    -407.460
  H     -108.326    -867.087    -407.806
  H     -114.945    -869.069    -410.067
  H     -103.942    -872.582    -411.427
  H     -110.106    -871.627    -409.834
  H     -107.941    -869.751    -407.651
  H     -107.212    -868.431    -410.041
  H     -102.605    -871.007    -410.328
  H     -109.487    -868.395    -410.862
  H     -103.343    -869.866    -409.232
  H     -110.286    -867.556    -408.010
  H     -112.174    -867.328    -409.452
  H     -111.805    -868.832    -410.335
  P     -108.595    -865.910    -411.494
  C     -110.244    -863.902    -411.365
  O     -108.915    -864.346    -411.558
  O     -109.506    -866.551    -412.642
  O     -107.159    -866.306    -411.612
  H     -108.995    -866.670    -413.459
  H     -110.240    -862.830    -411.164
  H     -110.698    -864.420    -410.497
  H     -110.844    -864.105    -412.261
  H     -114.969    -865.565    -406.665
  H     -115.759    -867.109    -406.451
  H     -115.763    -866.334    -408.017

 3  4  5  6  7  8  9  10  11  12  23  26  30  31 0
 6-311+G(2d,p)
 ****
 33  35  36  37  38 0
 6-311+G(2d,p)
 ****
 1  2  13  14  15  16  17  18  19  20  21  22  24  25 0
 3-21G
 ****
 27  28  29  32  34  39  40  41  42  43  44  45  46  47  48  49 0
 3-21G
 ****


