%nproc=1
%NoSave
%Mem=1900MB
#P OB98/GEN NMR

erre ene a

0 1
  C      191.758      80.367      -8.354
  O      192.293      79.067      -8.518
  P      193.384      78.496      -7.491
  C      195.667      78.063      -8.609
  O      194.799      79.036      -8.032
  C      195.546      78.061     -10.134
  O      195.415      79.407     -10.634
  C      196.748      77.463     -10.853
  O      196.724      76.050     -10.784
  C      196.567      78.035     -12.253
  O      195.634      77.256     -13.017
  C      195.994      79.441     -11.960
  N      196.998      80.488     -12.088
  C      197.472      80.730     -13.381
  O      197.063      80.057     -14.327
  N      198.429      81.701     -13.565
  C      198.888      82.350     -12.538
  N      199.847      83.287     -12.777
  C      198.442      82.102     -11.153
  C      197.504      81.166     -11.001
  O      193.313      77.028      -7.234
  O      193.146      79.386      -6.180
  H      195.548      77.708     -13.882
  H      192.321      79.115      -5.701
  H      198.862      82.662     -10.328
  H      197.120      80.919     -10.017
  H      195.171      79.671     -12.651
  H      197.508      78.053     -12.818
  H      197.676      77.860     -10.415
  H      194.633      77.507     -10.401
  H      200.150      83.405     -13.740
  H      195.390      77.079      -8.222
  H      200.297      83.821     -12.050
  H      196.700      78.275      -8.303
  P      198.098      75.232     -10.670
  C      198.092      73.613     -12.667
  O      198.562      74.850     -12.157
  O      198.087      74.100      -9.692
  O      199.162      76.346     -10.236
  H      199.727      75.986      -9.525
  H      198.188      73.626     -13.756
  H      197.043      73.455     -12.403
  H      198.699      72.799     -12.264
  H      191.051      80.563      -9.133
  H      192.549      81.087      -8.400
  H      191.270      80.435      -7.404

 3  4  5  6  7  8  9  10  11  12  13  23  27  28  29  30  32 0
 6-311+G(2d,p)
 ****
 34  35 0
 6-311+G(2d,p)
 ****
 1  2  14  15  16  17  18  19  20  21  22  24  25  26 0
 3-21G
 ****
 31  33  36  37  38  39  40  41  42  43  44  45  46 0
 3-21G
 ****


