%nproc=1
%NoSave
%Mem=1900MB
#P OB98/GEN NMR

erre ene a

0 1
  C     -334.762      95.992      51.753
  O     -333.849      97.088      51.693
  P     -332.491      96.875      50.873
  C     -333.351      97.007      48.393
  O     -332.650      97.622      49.462
  C     -333.400      97.928      47.158
  O     -333.790      99.255      47.589
  C     -332.070      98.109      46.429
  O     -332.331      98.607      45.119
  C     -331.412      99.194      47.260
  O     -330.349      99.825      46.554
  C     -332.609     100.102      47.625
  N     -332.486     100.745      48.948
  C     -331.693     101.892      49.064
  O     -331.088     102.401      48.118
  N     -331.574     102.426      50.318
  C     -332.192     101.962      51.443
  O     -331.986     102.428      52.562
  C     -333.120     100.845      51.246
  C     -333.212     100.290      50.037
  O     -332.515      95.324      50.500
  O     -331.261      97.257      51.631
  H     -330.037     100.568      47.119
  H     -331.882      94.829      51.057
  H     -330.953     103.214      50.424
  H     -333.679     100.488      52.108
  H     -333.882      99.442      49.880
  H     -332.737     100.904      46.886
  H     -330.983      98.758      48.169
  H     -331.453      97.210      46.375
  H     -334.172      97.559      46.466
  H     -334.368      96.749      48.715
  H     -332.860      96.061      48.130
  P     -331.964      97.667      43.868
  C     -334.131      96.668      42.908
  O     -333.214      97.746      42.861
  O     -331.485      96.292      44.201
  O     -330.842      98.518      43.100
  H     -330.335      97.928      42.502
  H     -335.122      97.039      42.619
  H     -334.190      96.231      43.908
  H     -333.822      95.900      42.192
  H     -335.619      96.273      52.329
  H     -334.283      95.153      52.213
  H     -335.068      95.728      50.762

 3  4  5  6  7  8  9  10  11  12  13  23  28  29  30  31  32 0
 6-311+G(2d,p)
 ****
 33  34 0
 6-311+G(2d,p)
 ****
 1  2  14  15  16  17  18  19  20  21  22  24  25  26  27 0
 3-21G
 ****
 35  36  37  38  39  40  41  42  43  44  45 0
 3-21G
 ****


