%nproc=1
%NoSave
%Mem=1900MB
#P OB98/GEN NMR

erre ene a

0 1
  C      118.235    -127.922    -245.656
  O      118.443    -129.318    -245.559
  H      117.385    -127.741    -246.321
  H      119.116    -127.424    -246.070
  H      118.004    -127.511    -244.670
  P      119.795    -129.835    -244.869
  C      120.231    -131.534    -246.765
  O      119.979    -131.353    -245.374
  C      121.562    -132.250    -246.999
  O      122.640    -131.554    -246.336
  C      121.613    -133.666    -246.447
  O      120.762    -134.585    -247.087
  C      123.110    -133.934    -246.413
  O      123.615    -134.350    -247.681
  C      123.667    -132.530    -246.054
  N      124.120    -132.451    -244.675
  C      125.465    -132.151    -244.487
  O      126.259    -131.980    -245.418
  N      125.891    -132.086    -243.187
  C      125.127    -132.335    -242.083
  O      125.575    -132.277    -240.941
  C      123.719    -132.684    -242.341
  C      123.288    -132.730    -243.605
  O      119.867    -129.677    -243.377
  O      120.950    -129.055    -245.658
  H      123.409    -133.638    -248.319
  H      121.809    -129.101    -245.168
  H      126.860    -131.849    -243.031
  H      123.092    -132.896    -241.489
  H      122.256    -132.980    -243.820
  H      124.518    -132.286    -246.707
  H      123.380    -134.709    -245.691
  H      121.284    -133.633    -245.396
  H      121.770    -132.235    -248.077
  H      120.265    -130.543    -247.231
  H      119.409    -132.107    -247.215
  P      120.028    -135.788    -246.343
  C      120.565    -137.595    -248.158
  O      119.575    -136.865    -247.440
  O      119.054    -135.422    -245.267
  O      121.273    -136.538    -245.631
  H      120.946    -136.898    -244.782
  H      120.088    -138.264    -248.843
  H      121.163    -138.156    -247.471
  H      121.188    -136.914    -248.700

 6  7  8  9  10  11  12  13  14  15  16  26  31  32  33  34  35 0
 6-311+G(2d,p)
 ****
 36  37 0
 6-311+G(2d,p)
 ****
 1  2  3  4  5  17  18  19  20  21  22  23  24  25 0
 3-21G
 ****
 27  28  29  30  38  39  40  41  42  43  44  45 0
 3-21G
 ****


