%nproc=1
%NoSave
%Mem=1900MB
#P OB98/GEN NMR

erre ene a

0 1
  C      532.842     149.910    -340.366
  O      532.708     149.621    -341.743
  P      531.805     150.542    -342.705
  C      533.881     151.578    -343.849
  O      532.702     150.788    -344.008
  C      534.710     151.521    -345.130
  O      535.326     150.219    -345.253
  C      533.915     151.717    -346.415
  O      533.588     153.088    -346.607
  C      534.861     151.120    -347.441
  O      535.902     152.059    -347.775
  C      535.469     149.932    -346.663
  N      534.840     148.656    -347.004
  C      535.400     147.952    -348.073
  O      536.372     148.398    -348.689
  N      534.859     146.743    -348.416
  C      533.838     146.277    -347.759
  N      533.391     145.035    -348.096
  C      533.186     147.004    -346.660
  C      533.734     148.177    -346.333
  O      531.283     151.786    -342.068
  O      530.664     149.568    -343.245
  H      535.470     152.827    -348.197
  H      529.868     149.525    -342.659
  H      532.330     146.583    -346.156
  H      533.329     148.768    -345.527
  H      536.541     149.861    -346.857
  H      534.369     150.831    -348.376
  H      532.986     151.134    -346.383
  H      535.506     152.278    -345.056
  H      533.974     144.503    -348.732
  H      534.467     151.167    -343.023
  H      532.807     144.498    -347.472
  H      533.598     152.601    -343.609
  P      532.502     153.442    -347.733
  C      530.586     153.295    -345.999
  O      531.254     154.093    -346.953
  O      531.980     152.008    -348.209
  O      533.036     154.254    -348.871
  H      532.406     151.750    -349.051
  H      529.938     153.940    -345.406
  H      531.302     152.807    -345.323
  H      529.974     152.543    -346.497
  H      533.480     149.182    -339.909
  H      531.879     149.882    -339.900
  H      533.268     150.884    -340.246

 3  4  5  6  7  8  9  10  11  12  13  23  27  28  29  30  32 0
 6-311+G(2d,p)
 ****
 34  35 0
 6-311+G(2d,p)
 ****
 1  2  14  15  16  17  18  19  20  21  22  24  25  26 0
 3-21G
 ****
 31  33  36  37  38  39  40  41  42  43  44  45  46 0
 3-21G
 ****


