%nproc=1
%NoSave
%Mem=1900MB
#P OB98/GEN NMR

erre ene a

0 1
  C     -227.918    -119.327      38.976
  O     -229.087    -118.866      39.628
  H     -228.167    -119.579      37.943
  H     -227.543    -120.223      39.478
  H     -227.148    -118.550      38.976
  P     -228.885    -118.227      41.083
  C     -228.493    -115.847      40.052
  O     -228.017    -116.885      40.898
  C     -227.491    -114.698      40.015
  O     -227.868    -113.719      39.027
  C     -227.416    -113.896      41.304
  O     -226.764    -114.593      42.343
  C     -226.651    -112.667      40.827
  O     -225.235    -112.887      40.837
  C     -227.170    -112.500      39.378
  N     -228.006    -111.324      39.237
  C     -227.321    -110.101      39.205
  O     -226.091    -110.082      39.273
  N     -228.048    -108.943      39.135
  C     -229.344    -108.993      39.127
  N     -230.005    -107.807      39.089
  C     -230.104    -110.259      39.161
  C     -229.379    -111.377      39.217
  O     -227.851    -119.239      41.764
  O     -230.144    -118.025      41.857
  H     -224.975    -112.960      41.778
  H     -227.079    -119.441      41.211
  H     -231.184    -110.248      39.139
  H     -229.855    -112.350      39.245
  H     -226.329    -112.410      38.677
  H     -226.843    -111.801      41.465
  H     -228.420    -113.574      41.608
  H     -226.510    -115.109      39.744
  H     -229.447    -106.962      39.123
  H     -229.470    -115.489      40.394
  H     -231.009    -107.721      39.159
  H     -228.627    -116.269      39.051
  P     -226.842    -114.090      43.860
  C     -229.146    -115.228      44.043
  O     -228.400    -114.033      44.251
  O     -226.090    -112.837      44.157
  O     -226.339    -115.364      44.691
  H     -226.872    -116.168      44.568
  H     -230.162    -115.070      44.337
  H     -228.724    -116.018      44.628
  H     -229.112    -115.494      43.007

 6  7  8  9  10  11  12  13  14  15  16  26  30  31  32  33  35 0
 6-311+G(2d,p)
 ****
 37  38 0
 6-311+G(2d,p)
 ****
 1  2  3  4  5  17  18  19  20  21  22  23  24  25 0
 3-21G
 ****
 27  28  29  34  36  39  40  41  42  43  44  45  46 0
 3-21G
 ****


