%nproc=1
%NoSave
%Mem=1900MB
#P OB98/GEN NMR

erre ene a

0 1
  C      372.614      66.858     -73.390
  O      373.157      66.197     -72.257
  P      373.027      66.835     -70.797
  C      371.293      65.059     -69.933
  O      372.548      65.695     -69.791
  C      371.068      64.114     -68.743
  O      371.729      62.856     -68.989
  C      371.636      64.699     -67.448
  O      370.622      65.384     -66.728
  C      372.166      63.468     -66.742
  O      371.101      62.770     -66.062
  C      372.694      62.623     -67.922
  N      374.035      62.927     -68.455
  C      375.161      62.690     -67.668
  O      375.112      62.181     -66.544
  N      376.367      63.055     -68.220
  C      376.543      63.590     -69.464
  O      377.573      64.133     -69.845
  C      375.361      63.572     -70.334
  C      374.183      63.262     -69.798
  O      371.744      67.774     -70.928
  O      374.225      67.590     -70.309
  H      371.517      62.134     -65.465
  H      372.009      68.713     -71.075
  H      377.171      63.011     -67.596
  H      375.487      63.853     -71.376
  H      373.281      63.283     -70.418
  H      372.678      61.548     -67.690
  H      372.892      63.746     -65.966
  H      372.481      65.366     -67.667
  H      369.994      63.923     -68.641
  H      371.256      64.506     -70.877
  H      370.496      65.812     -69.972
  P      371.032      66.544     -65.707
  C      371.467      68.051     -67.738
  O      370.772      67.910     -66.504
  O      372.384      66.408     -65.066
  O      369.857      66.502     -64.615
  H      370.143      65.987     -63.829
  H      371.070      68.928     -68.262
  H      371.315      67.163     -68.356
  H      372.530      68.195     -67.544
  H      372.803      66.275     -74.267
  H      373.071      67.820     -73.495
  H      371.558      66.977     -73.262

 3  4  5  6  7  8  9  10  11  12  13  23  28  29  30  31  32 0
 6-311+G(2d,p)
 ****
 33  34 0
 6-311+G(2d,p)
 ****
 1  2  14  15  16  17  18  19  20  21  22  24  25  26  27 0
 3-21G
 ****
 35  36  37  38  39  40  41  42  43  44  45 0
 3-21G
 ****


