%nproc=1
%NoSave
%Mem=1900MB
#P OB98/GEN NMR

erre ene a

0 1
  C       -4.186    -899.193     591.141
  O       -5.431    -898.843     590.555
  P       -5.440    -898.353     589.017
  C       -5.906    -895.903     589.567
  O       -5.002    -896.813     588.971
  C       -5.465    -894.453     589.268
  O       -5.393    -894.193     587.857
  C       -6.446    -893.423     589.824
  O       -6.314    -893.293     591.223
  C       -6.021    -892.183     589.035
  O       -4.864    -891.543     589.607
  C       -5.633    -892.793     587.642
  N       -6.641    -892.573     586.625
  C       -6.548    -891.373     585.916
  O       -5.654    -890.563     586.195
  N       -7.455    -891.123     584.923
  C       -8.395    -891.983     584.657
  N       -9.262    -891.693     583.669
  C       -8.531    -893.243     585.400
  C       -7.645    -893.493     586.348
  O       -6.686    -898.713     588.231
  O       -4.150    -899.123     588.396
  H       -4.578    -890.903     588.941
  H       -4.315    -899.303     587.455
  H       -9.344    -893.943     585.149
  H       -7.695    -894.383     586.968
  H       -4.696    -892.353     587.282
  H       -6.808    -891.433     588.982
  H       -7.465    -893.683     589.573
  H       -4.476    -894.303     589.714
  H       -9.166    -890.803     583.181
  H       -5.938    -896.073     590.644
  H       -9.994    -892.313     583.366
  H       -6.916    -896.083     589.184
  P       -7.492    -893.883     592.128
  C       -8.511    -891.513     592.517
  O       -8.703    -892.873     592.073
  O       -6.906    -893.723     593.624
  O       -7.844    -895.323     591.840
  H       -7.241    -894.433     594.173
  H       -9.310    -890.903     592.113
  H       -7.543    -891.123     592.118
  H       -8.514    -891.463     593.586
  H       -4.342    -899.495     592.156
  H       -3.530    -898.348     591.117
  H       -3.748    -900.000     590.592

 3  4  5  6  7  8  9  10  11  12  13  23  27  28  29  30  32 0
 6-311+G(2d,p)
 ****
 34  35 0
 6-311+G(2d,p)
 ****
 1  2  14  15  16  17  18  19  20  21  22  24  25  26 0
 3-21G
 ****
 31  33  36  37  38  39  40  41  42  43  44  45  46 0
 3-21G
 ****


