%nproc=1
%NoSave
%Mem=1900MB
#P OB98/GEN NMR

erre ene a

0 1
  C     -563.514    -313.555    -411.185
  O     -563.448    -313.341    -409.788
  H     -564.383    -314.180    -411.402
  H     -562.614    -314.073    -411.527
  H     -563.620    -312.602    -411.709
  P     -562.216    -312.461    -409.258
  C     -563.681    -310.734    -407.994
  O     -562.714    -311.770    -407.896
  C     -564.359    -310.512    -406.645
  O     -563.374    -310.386    -405.593
  C     -565.228    -309.263    -406.576
  O     -566.515    -309.505    -407.122
  C     -565.264    -309.006    -405.076
  O     -566.231    -309.849    -404.420
  C     -563.838    -309.380    -404.653
  N     -560.227    -307.091    -401.970
  C     -560.916    -308.258    -401.721
  N     -560.639    -308.879    -400.554
  N     -561.806    -308.766    -402.532
  C     -562.001    -308.016    -403.645
  C     -561.368    -306.852    -404.014
  C     -560.366    -306.320    -403.118
  O     -559.673    -305.324    -403.312
  N     -561.830    -306.399    -405.225
  C     -562.762    -307.267    -405.565
  N     -562.917    -308.259    -404.630
  O     -562.158    -311.237    -410.289
  O     -560.908    -313.174    -409.179
  H     -567.123    -309.624    -404.740
  H     -561.234    -310.937    -410.376
  H     -559.542    -306.759    -401.315
  H     -563.349    -307.220    -406.472
  H     -563.810    -309.832    -403.655
  H     -565.544    -307.976    -404.851
  H     -560.237    -308.382    -399.772
  H     -564.737    -308.419    -407.078
  H     -561.158    -309.726    -400.352
  H     -564.955    -311.407    -406.427
  H     -564.436    -311.022    -408.733
  H     -563.189    -309.815    -408.325
  P     -567.456    -308.235    -407.405
  C     -568.785    -309.480    -409.263
  O     -568.826    -308.811    -408.011
  O     -566.763    -307.538    -408.668
  O     -567.600    -307.296    -406.254
  H     -567.083    -306.618    -408.761
  H     -569.770    -309.802    -409.528
  H     -568.139    -310.330    -409.192
  H     -568.415    -308.812    -410.012

 6  7  8  9  10  11  12  13  14  15  26  29  33  34 0
 6-311+G(2d,p)
 ****
 36  38  39  40  41 0
 6-311+G(2d,p)
 ****
 1  2  3  4  5  16  17  18  19  20  21  22  23  24  25 0
 3-21G
 ****
 27  28  30  31  32  35  37  42  43  44  45  46  47 0
 3-21G
 ****
 48  49 0
 3-21G
 ****


