%nproc=1
%NoSave
%Mem=1900MB
#P OB98/GEN NMR

erre ene a

0 1
  C     -649.108    -610.738     611.006
  O     -648.867    -609.414     611.433
  H     -648.760    -610.841     609.973
  H     -650.181    -610.955     611.041
  H     -648.568    -611.460     611.630
  P     -648.979    -609.078     612.995
  C     -647.308    -607.188     612.419
  O     -648.441    -607.575     613.185
  C     -646.416    -606.218     613.212
  O     -647.204    -605.056     613.587
  C     -645.928    -606.867     614.518
  O     -644.675    -606.327     614.949
  C     -647.006    -606.459     615.519
  O     -646.546    -606.474     616.874
  C     -647.379    -605.069     615.013
  N     -650.578    -603.376     618.606
  C     -649.293    -603.824     618.744
  N     -648.773    -603.824     619.999
  N     -648.562    -604.265     617.738
  C     -649.232    -604.272     616.554
  C     -650.516    -603.866     616.299
  C     -651.301    -603.352     617.409
  O     -652.458    -602.958     617.347
  N     -650.838    -604.027     614.976
  C     -649.760    -604.541     614.422
  N     -648.743    -604.681     615.343
  O     -647.807    -609.953     613.658
  O     -650.305    -609.366     613.630
  H     -646.109    -607.335     617.025
  H     -647.991    -610.096     614.595
  H     -651.084    -603.015     619.402
  H     -649.653    -604.808     613.388
  H     -646.714    -604.309     615.437
  H     -647.820    -607.180     615.439
  H     -649.361    -603.694     620.806
  H     -645.842    -607.945     614.452
  H     -647.973    -604.436     620.152
  H     -645.597    -605.872     612.591
  H     -647.686    -606.706     611.513
  H     -646.743    -608.064     612.111
  P     -643.370    -607.245     614.832
  C     -641.430    -605.424     614.968
  O     -642.127    -606.518     615.546
  O     -643.002    -607.189     613.283
  O     -643.565    -608.642     615.314
  H     -643.103    -608.061     612.873
  H     -640.647    -605.112     615.627
  H     -642.109    -604.612     614.811
  H     -641.010    -605.724     614.031

 6  7  8  9  10  11  12  13  14  15  26  29  33  34 0
 6-311+G(2d,p)
 ****
 36  38  39  40  41 0
 6-311+G(2d,p)
 ****
 1  2  3  4  5  16  17  18  19  20  21  22  23  24  25 0
 3-21G
 ****
 27  28  30  31  32  35  37  42  43  44  45  46  47 0
 3-21G
 ****
 48  49 0
 3-21G
 ****


