%nproc=1
%NoSave
%Mem=1900MB
#P OB98/GEN NMR

erre ene a

0 1
  C      862.055    -433.810     182.729
  O      863.292    -433.594     183.384
  H      861.338    -434.200     183.458
  H      862.180    -434.542     181.927
  H      861.672    -432.872     182.322
  P      864.481    -433.001     182.486
  C      865.560    -431.662     184.446
  O      865.697    -432.708     183.496
  C      866.738    -431.673     185.426
  O      866.791    -432.990     186.075
  C      868.107    -431.455     184.764
  O      868.979    -430.839     185.725
  C      868.564    -432.886     184.511
  O      869.940    -432.933     184.199
  C      868.109    -433.527     185.815
  N      870.846    -437.833     185.405
  C      871.216    -436.539     185.487
  N      870.427    -435.445     185.610
  C      869.135    -435.799     185.661
  C      868.603    -437.078     185.596
  C      869.518    -438.136     185.457
  N      869.148    -439.442     185.357
  N      867.215    -437.035     185.679
  C      866.920    -435.760     185.791
  N      868.047    -434.972     185.782
  O      863.951    -431.544     182.084
  O      864.846    -433.811     181.291
  H      870.166    -433.783     183.767
  H      863.522    -431.577     181.211
  H      872.290    -436.355     185.456
  H      865.924    -435.341     185.883
  H      868.742    -433.247     186.661
  H      868.035    -433.321     183.660
  H      868.061    -430.838     183.864
  H      866.555    -430.944     186.225
  H      864.624    -431.794     184.986
  H      865.539    -430.693     183.920
  H      869.868    -440.143     185.243
  H      868.160    -439.687     185.378
  P      868.942    -429.244     185.909
  C      868.549    -429.291     188.496
  O      869.373    -428.888     187.416
  O      867.370    -428.946     185.936
  O      869.613    -428.454     184.828
  H      867.197    -428.043     185.600
  H      868.988    -428.971     189.418
  H      868.456    -430.357     188.496
  H      867.580    -428.849     188.390

 6  7  8  9  10  11  12  13  14  15  25  28  32  33  34  35 0
 6-311+G(2d,p)
 ****
 36  37  40 0
 6-311+G(2d,p)
 ****
 1  2  3  4  5  16  17  18  19  20  21  22  23  24 0
 3-21G
 ****
 26  27  29  30  31  38  39 41  42  43  44  45  46  47  48 0
 3-21G
 ****


