%nproc=1
%NoSave
%Mem=1900MB
#P OB98/GEN NMR

erre ene a

0 1
  C      149.278      43.125    -181.490
  O      149.805      43.897    -180.427
  P      148.864      44.818    -179.516
  C      147.699      47.094    -179.802
  O      148.478      46.084    -180.426
  C      146.966      47.954    -180.834
  O      146.044      47.120    -181.592
  C      146.158      49.117    -180.243
  O      146.225      50.181    -181.198
  C      144.752      48.543    -180.186
  O      143.751      49.545    -180.086
  C      144.731      47.706    -181.477
  N      143.676      46.700    -181.456
  C      142.576      46.925    -182.291
  O      142.493      47.974    -182.937
  N      141.571      45.992    -182.334
  C      141.616      44.971    -181.531
  N      140.596      44.074    -181.618
  C      142.694      44.761    -180.547
  C      143.687      45.648    -180.573
  O      149.418      45.156    -178.173
  O      147.486      44.007    -179.452
  H      142.919      49.124    -179.783
  H      147.560      43.252    -178.815
  H      142.658      43.929    -179.860
  H      144.524      45.575    -179.890
  H      144.581      48.355    -182.354
  H      144.657      47.888    -179.312
  H      146.516      49.447    -179.266
  H      147.712      48.341    -181.543
  H      139.887      44.250    -182.319
  H      148.374      47.737    -179.230
  H      140.574      43.210    -181.098
  H      146.993      46.644    -179.101
  P      145.833      51.682    -180.797
  C      143.676      53.043    -180.533
  O      144.237      51.782    -180.859
  O      146.557      52.750    -181.554
  O      146.140      51.771    -179.227
  H      146.173      52.707    -178.952
  H      142.639      53.073    -180.878
  H      144.234      53.853    -181.010
  H      143.697      53.178    -179.447
  H      150.070      42.587    -181.967
  H      148.807      43.771    -182.201
  H      148.558      42.433    -181.106

 3  4  5  6  7  8  9  10  11  12  13  23  27  28  29  30  32 0
 6-311+G(2d,p)
 ****
 34  35 0
 6-311+G(2d,p)
 ****
 1  2  14  15  16  17  18  19  20  21  22  24  25  26 0
 3-21G
 ****
 31  33  36  37  38  39  40  41  42  43  44  45  46 0
 3-21G
 ****


