%nproc=1
%NoSave
%Mem=1900MB
#P OB98/GEN NMR

erre ene a

0 1
  C      100.439    -174.265      37.603
  O      100.096    -173.090      36.901
  H      100.321    -175.122      36.936
  H       99.775    -174.395      38.461
  H      101.480    -174.223      37.941
  P      100.349    -171.686      37.638
  C      102.752    -171.280      36.740
  O      101.391    -170.870      36.728
  C      103.533    -170.574      35.628
  O      103.048    -171.052      34.348
  C      103.388    -169.051      35.650
  O      104.649    -168.469      35.295
  C      102.377    -168.768      34.552
  O      102.502    -167.454      34.012
  C      102.670    -169.901      33.562
  N      101.513    -170.180      32.711
  C      101.343    -169.354      31.598
  O      102.135    -168.435      31.377
  N      100.245    -169.541      30.796
  C       99.351    -170.427      31.124
  N       98.273    -170.546      30.304
  C       99.463    -171.274      32.328
  C      100.560    -171.108      33.064
  O      101.218    -172.090      38.918
  O       99.117    -170.927      38.002
  H      101.866    -167.365      33.271
  H      101.034    -171.500      39.674
  H       98.680    -171.980      32.574
  H      100.722    -171.680      33.967
  H      103.524    -169.643      32.920
  H      101.362    -168.871      34.955
  H      103.068    -168.661      36.619
  H      104.585    -170.872      35.703
  H       98.227    -169.933      29.499
  H      102.800    -172.362      36.578
  H       97.498    -171.167      30.487
  H      103.192    -171.052      37.719
  P      104.988    -167.040      35.938
  C      107.105    -167.517      37.368
  O      106.574    -166.957      36.172
  O      104.389    -167.147      37.420
  O      104.398    -165.890      35.187
  H      103.590    -166.595      37.496
  H      108.167    -167.386      37.382
  H      106.873    -168.561      37.406
  H      106.674    -167.025      38.214

 6  7  8  9  10  11  12  13  14  15  16  26  30  31  32  33  35 0
 6-311+G(2d,p)
 ****
 37  38 0
 6-311+G(2d,p)
 ****
 1  2  3  4  5  17  18  19  20  21  22  23  24  25 0
 3-21G
 ****
 27  28  29  34  36  39  40  41  42  43  44  45  46 0
 3-21G
 ****


