%nproc=1
%NoSave
%Mem=1900MB
#P OB98/GEN NMR

erre ene a

0 1
  C     1133.908     -82.887    -896.415
  O     1132.842     -83.591    -895.825
  H     1133.688     -82.737    -897.475
  H     1134.854     -83.453    -896.325
  H     1134.017     -81.900    -895.945
  P     1132.980     -84.039    -894.285
  C     1133.100     -86.553    -894.855
  O     1133.752     -85.435    -894.285
  C     1133.960     -87.827    -894.715
  O     1133.711     -88.391    -893.395
  C     1133.632     -88.928    -895.755
  O     1134.826     -89.679    -895.995
  C     1132.601     -89.769    -894.995
  O     1132.412     -90.998    -895.625
  C     1133.236     -89.752    -893.595
  N     1132.302     -90.168    -892.565
  C     1132.569     -91.400    -891.945
  O     1133.548     -92.068    -892.285
  N     1131.706     -91.846    -890.975
  C     1130.621     -91.164    -890.685
  N     1129.814     -91.666    -889.735
  C     1130.267     -89.891    -891.365
  C     1131.136     -89.458    -892.275
  O     1131.709     -84.019    -893.475
  O     1134.076     -83.011    -893.695
  H     1133.268     -91.433    -895.815
  H     1133.624     -82.342    -893.125
  H     1129.357     -89.362    -891.125
  H     1130.976     -88.540    -892.825
  H     1134.110     -90.412    -893.555
  H     1131.635     -89.262    -894.975
  H     1133.256     -88.503    -896.705
  H     1135.018     -87.548    -894.765
  H     1130.074     -92.559    -889.305
  H     1132.951     -86.336    -895.925
  H     1128.944     -91.240    -889.455
  H     1132.117     -86.722    -894.405
  P     1135.866     -89.311    -897.145
  C     1134.779     -90.648    -899.055
  O     1135.108     -89.357    -898.575
  O     1137.139     -90.097    -897.105
  O     1136.191     -87.740    -896.945
  H     1137.096     -87.565    -897.245
  H     1134.285     -90.562    -900.000
  H     1134.130     -91.134    -898.356
  H     1135.673     -91.224    -899.171

 6  7  8  9  10  11  12  13  14  15  16  26  30  31  32  33  35 0
 6-311+G(2d,p)
 ****
 37  38 0
 6-311+G(2d,p)
 ****
 1  2  3  4  5  17  18  19  20  21  22  23  24  25 0
 3-21G
 ****
 27  28  29  34  36  39  40  41  42  43  44  45  46 0
 3-21G
 ****


