%nproc=1
%NoSave
%Mem=1900MB
#P OB98/GEN NMR

erre ene a

0 1
  C      736.434    -279.644     751.865
  O      737.493    -280.138     752.680
  P      737.155    -280.574     754.187
  C      738.202    -282.888     753.776
  O      737.060    -282.174     754.240
  C      738.591    -284.000     754.775
  O      737.422    -284.814     755.065
  C      739.663    -284.976     754.281
  O      741.035    -284.652     754.515
  C      739.358    -286.216     755.117
  O      739.979    -286.087     756.423
  C      737.843    -286.171     755.282
  N      735.656    -290.795     754.752
  C      736.258    -290.183     755.805
  N      736.807    -288.954     755.865
  C      736.705    -288.324     754.677
  C      736.122    -288.816     753.524
  C      735.591    -290.119     753.576
  N      734.985    -290.739     752.509
  N      736.194    -287.880     752.501
  C      736.838    -286.857     753.035
  N      737.154    -287.072     754.356
  O      736.032    -279.836     754.845
  O      738.548    -280.288     754.939
  H      740.920    -285.841     756.259
  H      738.347    -279.949     755.841
  H      736.294    -290.767     756.729
  H      737.106    -285.961     752.506
  H      737.525    -286.455     756.290
  H      739.761    -287.137     754.674
  H      739.516    -285.204     753.217
  H      738.919    -283.536     755.715
  H      739.043    -282.206     753.639
  H      734.662    -291.682     752.619
  H      734.973    -290.264     751.605
  H      737.956    -283.303     752.775
  P      742.136    -284.762     753.336
  C      741.849    -282.294     752.533
  O      741.720    -283.669     752.240
  O      742.329    -286.133     752.790
  O      743.430    -284.121     754.017
  H      743.369    -283.169     754.176
  H      741.715    -281.720     751.595
  H      742.834    -282.077     752.930
  H      741.081    -281.961     753.236
  H      736.815    -279.398     750.896
  H      736.015    -278.769     752.316
  H      735.677    -280.394     751.771

 3  4  5  6  7  8  9  10  11  12  22  25  29  30  31  32 0
 6-311+G(2d,p)
 ****
 33  36  37 0
 6-311+G(2d,p)
 ****
 1  2  13  14  15  16  17  18  19  20  21  23  24  26 0
 3-21G
 ****
 27  28  34  35  38  39  40  41  42  43  44  45  46  47  48 0
 3-21G
 ****


