%nproc=1
%NoSave
%Mem=1900MB
#P OB98/GEN NMR

erre ene a

0 1
  C     -107.247    -300.889      -3.035
  O     -106.500    -299.869      -3.711
  P     -105.256    -299.102      -3.047
  C     -103.398    -299.832      -4.678
  O     -103.905    -299.913      -3.354
  C     -102.009    -300.470      -4.797
  O     -101.032    -299.687      -4.046
  C     -101.928    -301.918      -4.281
  O     -101.056    -302.622      -5.170
  C     -101.294    -301.729      -2.911
  O     -100.725    -302.910      -2.379
  C     -100.286    -300.624      -3.241
  N      -99.689    -299.956      -2.090
  C      -98.694    -300.642      -1.383
  O      -98.371    -301.790      -1.681
  N      -98.089    -300.009      -0.323
  C      -98.445    -298.809       0.009
  N      -97.799    -298.239       1.061
  C      -99.499    -298.059      -0.694
  C     -100.069    -298.684      -1.722
  O     -105.446    -298.797      -1.597
  O     -105.090    -297.750      -3.889
  H     -104.808    -297.032      -3.291
  H     -100.407    -302.712      -1.479
  H      -99.761    -297.057      -0.389
  H     -100.835    -298.188      -2.310
  H      -99.494    -301.034      -3.878
  H     -102.063    -301.386      -2.213
  H     -102.895    -302.429      -4.257
  H     -101.705    -300.425      -5.850
  H      -97.073    -298.782       1.513
  H     -103.325    -298.777      -4.959
  H      -97.990    -297.308       1.400
  H     -104.102    -300.321      -5.361
  P     -101.678    -303.544      -6.326
  C     -100.971    -301.643      -7.960
  O     -101.935    -302.612      -7.604
  O     -103.172    -303.782      -5.788
  O     -101.001    -304.855      -6.562
  H     -103.515    -304.614      -6.160
  H     -100.821    -301.679      -9.042
  H     -100.011    -301.812      -7.468
  H     -101.344    -300.653      -7.688
  H     -108.023    -301.248      -3.678
  H     -107.681    -300.483      -2.145
  H     -106.595    -301.697      -2.777

 3  4  5  6  7  8  9  10  11  12  13  24  27  28  29  30  32 0
 6-311+G(2d,p)
 ****
 34  35 0
 6-311+G(2d,p)
 ****
 1  2  14  15  16  17  18  19  20  21  22  23  25  26 0
 3-21G
 ****
 31  33  36  37  38  39  40  41  42  43  44  45  46 0
 3-21G
 ****


