%nproc=1
%NoSave
%Mem=1900MB
#P OB98/GEN NMR

erre ene a

0 1
  C       32.532    -438.986    -457.303
  O       31.199    -439.238    -456.900
  H       33.117    -439.897    -457.173
  H       32.965    -438.197    -456.686
  H       32.560    -438.695    -458.359
  P       30.144    -438.043    -457.096
  C       29.139    -439.099    -459.242
  O       29.811    -437.989    -458.667
  C       29.035    -438.950    -460.757
  O       30.372    -439.065    -461.338
  C       28.145    -439.997    -461.439
  O       27.487    -439.371    -462.545
  C       29.157    -440.994    -461.996
  O       28.623    -441.773    -463.060
  C       30.278    -440.034    -462.401
  N       33.038    -442.486    -465.820
  C       31.820    -441.851    -465.940
  N       31.247    -441.865    -467.166
  N       31.217    -441.251    -464.954
  C       31.921    -441.279    -463.796
  C       33.136    -441.876    -463.544
  C       33.782    -442.567    -464.646
  O       34.850    -443.161    -464.590
  N       33.502    -441.713    -462.232
  C       32.518    -441.016    -461.698
  N       31.539    -440.723    -462.605
  O       31.042    -436.739    -456.855
  O       28.958    -438.081    -456.191
  H       27.772    -442.151    -462.757
  H       30.982    -436.455    -455.921
  H       33.452    -442.945    -466.611
  H       32.466    -440.692    -460.654
  H       30.059    -439.500    -463.329
  H       29.489    -441.676    -461.199
  H       31.676    -442.272    -467.980
  H       27.402    -440.464    -460.781
  H       30.366    -441.368    -467.280
  H       28.686    -437.931    -460.980
  H       28.130    -439.162    -458.815
  H       29.683    -440.015    -458.991
  P       26.003    -438.815    -462.317
  C       26.648    -436.348    -462.827
  O       26.100    -437.273    -461.902
  O       25.558    -439.526    -460.953
  O       25.045    -439.129    -463.433
  H       24.590    -439.636    -460.929
  H       26.641    -435.368    -462.398
  H       26.062    -436.350    -463.723
  H       27.654    -436.629    -463.058

 6  7  8  9  10  11  12  13  14  15  26  29  33  34 0
 6-311+G(2d,p)
 ****
 36  38  39  40  41 0
 6-311+G(2d,p)
 ****
 1  2  3  4  5  16  17  18  19  20  21  22  23  24  25 0
 3-21G
 ****
 27  28  30  31  32  35  37  42  43  44  45  46  47 0
 3-21G
 ****
 48  49 0
 3-21G
 ****


