%nproc=1
%NoSave
%Mem=1900MB
#P OB98/GEN NMR

erre ene a

0 1
  C      158.086     -21.192     396.328
  O      159.098     -21.310     395.346
  H      158.482     -21.545     397.283
  H      157.223     -21.805     396.054
  H      157.782     -20.147     396.434
  P      158.723     -20.820     393.866
  C      161.136     -19.975     393.394
  O      159.757     -19.649     393.500
  C      161.956     -18.695     393.251
  O      161.753     -17.852     394.410
  C      163.460     -18.932     393.182
  O      163.879     -19.362     391.900
  C      163.990     -17.561     393.567
  O      164.018     -16.674     392.441
  C      162.961     -17.079     394.595
  N      166.458     -15.480     397.954
  C      166.172     -15.088     396.691
  N      165.214     -15.558     395.866
  C      164.490     -16.512     396.476
  C      164.662     -17.011     397.756
  C      165.703     -16.451     398.515
  N      166.010     -16.865     399.790
  N      163.749     -18.016     398.011
  C      163.032     -18.117     396.911
  N      163.443     -17.225     395.956
  O      157.336     -20.050     394.080
  O      158.605     -21.905     392.850
  H      164.509     -15.881     392.729
  H      156.597     -20.633     393.823
  H      166.805     -14.301     396.289
  H      162.222     -18.816     396.754
  H      162.696     -16.024     394.457
  H      165.005     -17.632     393.959
  H      163.764     -19.656     393.951
  H      161.605     -18.150     392.366
  H      161.293     -20.603     392.511
  H      161.439     -20.530     394.286
  H      166.813     -16.467     400.249
  H      165.527     -17.666     400.174
  P      164.355     -20.887     391.744
  C      163.478     -21.649     389.407
  O      163.278     -21.626     390.816
  O      164.104     -21.516     393.195
  O      165.770     -21.053     391.304
  H      164.800     -22.168     393.397
  H      162.673     -22.178     388.941
  H      164.403     -22.140     389.186
  H      163.508     -20.646     389.035

 6  7  8  9  10  11  12  13  14  15  25  28  32  33  34  35 0
 6-311+G(2d,p)
 ****
 36  37  40 0
 6-311+G(2d,p)
 ****
 1  2  3  4  5  16  17  18  19  20  21  22  23  24 0
 3-21G
 ****
 26  27  29  30  31  38  39 41  42  43  44  45  46  47  48 0
 3-21G
 ****


