%nproc=1
%NoSave
%Mem=1900MB
#P OB98/GEN NMR

erre ene a

0 1
  C     -185.403     130.593     314.981
  O     -184.433     131.156     315.842
  H     -185.456     129.511     315.129
  H     -186.380     131.027     315.215
  H     -185.157     130.814     313.939
  P     -182.927     130.623     315.685
  C     -183.071     129.098     317.790
  O     -182.923     129.171     316.379
  C     -182.535     127.757     318.284
  O     -182.504     127.737     319.729
  C     -183.386     126.561     317.869
  O     -183.105     126.122     316.549
  C     -182.944     125.531     318.894
  O     -181.655     125.007     318.534
  C     -182.834     126.389     320.166
  N     -186.086     123.655     323.032
  C     -184.913     123.335     322.441
  N     -184.099     124.125     321.713
  C     -184.592     125.371     321.626
  C     -185.770     125.846     322.185
  C     -186.541     124.924     322.916
  N     -187.753     125.237     323.491
  N     -185.956     127.176     321.863
  C     -184.898     127.501     321.142
  N     -184.062     126.431     320.947
  O     -182.094     131.517     316.717
  O     -182.367     130.648     314.302
  H     -181.298     124.556     319.325
  H     -181.136     131.434     316.545
  H     -184.590     122.305     322.570
  H     -184.700     128.483     320.734
  H     -182.037     126.049     320.838
  H     -183.631     124.683     318.963
  H     -184.455     126.763     318.003
  H     -181.502     127.651     317.926
  H     -184.137     129.181     318.039
  H     -188.301     124.478     323.865
  H     -188.172     126.134     323.287
  H     -182.525     129.920     318.260
  P     -184.357     125.757     315.608
  C     -184.084     123.214     316.071
  O     -184.929     124.356     316.144
  O     -183.655     125.361     314.223
  O     -185.359     126.855     315.448
  H     -184.230     125.600     313.467
  H     -184.600     122.363     316.462
  H     -183.198     123.389     316.645
  H     -183.818     123.032     315.051

 6  7  8  9  10  11  12  13  14  15  25  28  32  33  34  35 0
 6-311+G(2d,p)
 ****
 36  39  40 0
 6-311+G(2d,p)
 ****
 1  2  3  4  5  16  17  18  19  20  21  22  23  24 0
 3-21G
 ****
 26  27  29  30  31  37  38  41  42  43  44  45  46  47 0
 3-21G
 ****
 48 0
 3-21G
 ****


