%nproc=1
%NoSave
%Mem=1900MB
#P OB98/GEN NMR

erre ene a

0 1
  C     -140.778     -72.096     -80.081
  O     -141.403     -73.360     -79.961
  H     -139.752     -72.172     -79.711
  H     -141.313     -71.350     -79.482
  H     -140.755     -71.785     -81.129
  P     -142.946     -73.434     -80.397
  C     -143.682     -72.902     -77.970
  O     -143.760     -72.539     -79.340
  C     -144.137     -71.744     -77.083
  O     -143.836     -72.013     -75.696
  C     -143.491     -70.404     -77.420
  O     -144.172     -69.766     -78.487
  C     -143.638     -69.660     -76.102
  O     -144.974     -69.127     -75.954
  C     -143.381     -70.776     -75.075
  N     -139.813     -68.922     -72.018
  C     -141.102     -68.488     -72.248
  N     -141.498     -67.378     -71.585
  N     -141.937     -69.082     -73.061
  C     -141.393     -70.145     -73.701
  C     -140.128     -70.673     -73.564
  C     -139.234     -70.037     -72.614
  O     -138.109     -70.426     -72.305
  N     -139.955     -71.770     -74.371
  C     -141.099     -71.887     -75.018
  N     -142.003     -70.916     -74.653
  O     -143.369     -74.934     -80.016
  O     -143.220     -73.147     -81.837
  H     -145.010     -68.581     -75.150
  H     -143.976     -75.270     -80.701
  H     -139.226     -68.447     -71.356
  H     -141.328     -72.648     -75.750
  H     -143.976     -70.636     -74.164
  H     -142.958     -68.808     -76.040
  H     -140.832     -66.731     -71.187
  H     -142.424     -70.527     -77.650
  H     -142.416     -67.020     -71.813
  H     -145.229     -71.673     -77.166
  H     -142.648     -73.162     -77.731
  H     -144.323     -73.775     -77.792
  P     -143.299     -69.105     -79.660
  C     -142.867     -67.019     -78.173
  O     -142.304     -68.034     -78.991
  O     -144.370     -68.191     -80.428
  O     -142.660     -70.085     -80.586
  H     -144.614     -68.616     -81.275
  H     -142.088     -66.387     -77.802
  H     -143.383     -67.469     -77.351
  H     -143.554     -66.436     -78.750

 6  7  8  9  10  11  12  13  14  15  26  29  33  34 0
 6-311+G(2d,p)
 ****
 36  38  39  40  41 0
 6-311+G(2d,p)
 ****
 1  2  3  4  5  16  17  18  19  20  21  22  23  24  25 0
 3-21G
 ****
 27  28  30  31  32  35  37  42  43  44  45  46  47 0
 3-21G
 ****
 48  49 0
 3-21G
 ****


