%nproc=1
%NoSave
%Mem=1900MB
#P OB98/GEN NMR

erre ene a

0 1
  C      178.236    -409.866    -924.854
  O      178.572    -409.999    -926.220
  H      178.616    -408.923    -924.456
  H      177.146    -409.872    -924.761
  H      178.639    -410.703    -924.278
  P      180.137    -410.026    -926.579
  C      179.696    -407.710    -927.676
  O      180.547    -408.500    -926.852
  C      179.537    -406.315    -927.075
  O      179.133    -406.417    -925.686
  C      180.831    -405.489    -927.054
  O      181.081    -404.879    -928.315
  C      180.488    -404.459    -925.999
  O      179.605    -403.467    -926.561
  C      179.731    -405.304    -924.967
  N      180.544    -405.544    -919.913
  C      179.597    -404.918    -920.648
  N      179.460    -404.903    -921.992
  C      180.420    -405.625    -922.578
  C      181.449    -406.313    -921.968
  C      181.494    -406.273    -920.555
  N      182.456    -406.902    -919.806
  N      182.269    -406.924    -922.897
  C      181.708    -406.631    -924.052
  N      180.595    -405.835    -923.926
  O      180.182    -410.685    -928.037
  O      181.013    -410.741    -925.600
  H      178.837    -403.948    -926.925
  H      181.070    -411.043    -928.221
  H      178.866    -404.347    -920.082
  H      182.082    -406.957    -925.024
  H      178.924    -404.756    -924.472
  H      181.356    -403.936    -925.617
  H      181.695    -406.089    -926.721
  H      178.739    -405.792    -927.620
  H      178.712    -408.193    -927.743
  H      182.502    -406.655    -918.830
  H      183.254    -407.314    -920.278
  H      180.127    -407.642    -928.685
  P      182.329    -405.432    -929.166
  C      183.127    -402.956    -929.052
  O      183.483    -404.343    -929.008
  O      181.838    -405.246    -930.683
  O      182.713    -406.846    -928.868
  H      182.279    -405.884    -931.279
  H      184.006    -402.358    -928.932
  H      182.438    -402.739    -928.262
  H      182.671    -402.735    -929.994

 6  7  8  9  10  11  12  13  14  15  25  28  32  33  34  35 0
 6-311+G(2d,p)
 ****
 36  39  40 0
 6-311+G(2d,p)
 ****
 1  2  3  4  5  16  17  18  19  20  21  22  23  24 0
 3-21G
 ****
 26  27  29  30  31  37  38  41  42  43  44  45  46  47 0
 3-21G
 ****
 48 0
 3-21G
 ****


