%nproc=1
%NoSave
%Mem=1900MB
#P OB98/GEN NMR

erre ene a

0 1
  C       -1.489     -21.217      26.142
  O       -0.550     -20.180      26.360
  P        0.999     -20.530      26.557
  C        0.979     -20.208      29.139
  O        1.167     -21.085      28.051
  C        1.875     -20.594      30.323
  O        1.551     -21.954      30.701
  C        3.370     -20.589      30.024
  O        4.081     -20.546      31.262
  C        3.560     -21.942      29.374
  O        4.918     -22.370      29.408
  C        2.563     -22.833      30.158
  N        1.945     -23.849      29.286
  C        2.793     -24.806      28.737
  O        3.990     -24.875      29.009
  N        2.235     -25.629      27.797
  C        0.954     -25.547      27.338
  O        0.565     -26.070      26.301
  C        0.054     -24.686      28.121
  C        0.588     -23.867      29.030
  O        1.685     -19.085      26.608
  O        1.590     -21.388      25.492
  H        5.152     -22.502      30.357
  H        2.036     -18.848      25.729
  H        2.883     -26.225      27.295
  H       -1.002     -24.705      27.886
  H       -0.046     -23.182      29.586
  H        3.058     -23.354      30.986
  H        3.260     -21.879      28.321
  H        3.695     -19.774      29.371
  H        1.650     -19.943      31.176
  H       -0.075     -20.219      29.433
  H        1.206     -19.179      28.841
  P        5.228     -19.438      31.430
  C        7.106     -21.063      30.781
  O        6.421     -19.872      30.451
  O        5.629     -19.120      32.831
  O        4.607     -18.161      30.685
  H        5.071     -17.354      30.973
  H        7.486     -21.517      29.862
  H        6.450     -21.777      31.285
  H        7.950     -20.824      31.433
  H       -2.467     -20.796      26.033
  H       -1.480     -21.887      26.976
  H       -1.230     -21.751      25.252

 3  4  5  6  7  8  9  10  11  12  13  23  28  29  30  31  32 0
 6-311+G(2d,p)
 ****
 33  34 0
 6-311+G(2d,p)
 ****
 1  2  14  15  16  17  18  19  20  21  22  24  25  26  27 0
 3-21G
 ****
 35  36  37  38  39  40  41  42  43  44  45 0
 3-21G
 ****


