%nproc=1
%NoSave
%Mem=1900MB
#P OB98/GEN NMR

erre ene a

0 1
  C      -43.375      82.002     -48.987
  O      -44.374      81.201     -48.371
  P      -44.354      79.620     -48.642
  C      -46.180      79.917     -50.458
  O      -45.777      79.235     -49.279
  C      -47.659      80.297     -50.398
  O      -48.462      79.093     -50.525
  C      -48.085      80.991     -49.101
  O      -49.123      81.919     -49.436
  C      -48.677      79.858     -48.284
  O      -49.551      80.328     -47.262
  C      -49.352      79.050     -49.389
  N      -52.647      75.148     -49.599
  C      -52.692      76.390     -50.123
  N      -51.774      77.374     -50.025
  C      -50.723      76.970     -49.292
  C      -50.554      75.748     -48.665
  C      -51.578      74.802     -48.843
  N      -51.530      73.532     -48.318
  N      -49.357      75.716     -47.980
  C      -48.814      76.897     -48.189
  N      -49.592      77.679     -48.995
  O      -44.427      79.010     -47.164
  O      -43.161      79.117     -49.380
  H      -49.042      80.911     -46.669
  H      -43.580      78.576     -46.941
  H      -53.579      76.623     -50.706
  H      -47.871      77.232     -47.781
  H      -50.311      79.487     -49.695
  H      -47.874      79.287     -47.807
  H      -47.270      81.505     -48.580
  H      -47.887      80.930     -51.264
  H      -46.023      79.256     -51.315
  H      -52.233      72.871     -48.603
  H      -50.659      73.203     -47.917
  H      -45.564      80.811     -50.592
  P      -48.865      83.460     -49.078
  C      -50.031      83.330     -46.766
  O      -50.021      83.896     -48.062
  O      -49.242      84.222     -50.435
  O      -47.467      83.760     -48.648
  H      -48.740      85.054     -50.500
  H      -50.418      84.069     -46.060
  H      -49.030      83.025     -46.445
  H      -50.688      82.456     -46.762
  H      -43.520      83.026     -48.713
  H      -43.445      81.904     -50.050
  H      -42.408      81.679     -48.662

 3  4  5  6  7  8  9  10  11  12  22  25  29  30  31  32 0
 6-311+G(2d,p)
 ****
 33  36  37 0
 6-311+G(2d,p)
 ****
 1  2  13  14  15  16  17  18  19  20  21  23  24  26 0
 3-21G
 ****
 27  28  34  35  38  39  40  41  42  43  44  45  46  47  48 0
 3-21G
 ****


