%nproc=1
%NoSave
%Mem=1900MB
#P OB98/GEN NMR

erre ene a

0 1
  C     -219.177     225.581      71.432
  O     -220.307     224.792      71.841
  P     -221.182     224.041      70.719
  C     -223.337     225.509      70.763
  O     -222.207     225.062      70.032
  C     -224.566     225.666      69.853
  O     -224.402     226.820      68.978
  C     -224.843     224.450      68.951
  O     -226.266     224.365      68.786
  C     -224.191     224.863      67.640
  O     -224.671     224.132      66.522
  C     -224.543     226.353      67.620
  N     -223.721     227.152      66.707
  C     -224.370     227.920      65.747
  O     -225.584     227.933      65.572
  N     -223.558     228.685      64.945
  C     -222.192     228.717      64.980
  O     -221.521     229.397      64.212
  C     -221.561     227.861      65.993
  C     -222.341     227.133      66.798
  O     -222.156     223.133      71.616
  O     -220.407     223.182      69.775
  H     -224.303     224.554      65.722
  H     -222.194     222.227      71.249
  H     -224.010     229.258      64.255
  H     -220.478     227.864      66.059
  H     -221.897     226.501      67.562
  H     -225.600     226.475      67.352
  H     -223.111     224.699      67.711
  H     -224.451     223.514      69.357
  H     -225.433     225.873      70.489
  H     -223.110     226.481      71.219
  H     -223.549     224.796      71.566
  P     -227.124     223.637      69.933
  C     -227.732     221.273      68.992
  O     -226.875     222.062      69.787
  O     -228.606     223.827      69.343
  O     -226.954     224.220      71.298
  H     -228.662     223.626      68.398
  H     -227.998     221.782      68.064
  H     -228.638     221.036      69.553
  H     -227.215     220.340      68.743
  H     -218.709     226.008      72.294
  H     -219.505     226.363      70.780
  H     -218.475     224.959      70.917

 3  4  5  6  7  8  9  10  11  12  13  23  28  29  30  31  32 0
 6-311+G(2d,p)
 ****
 33  34 0
 6-311+G(2d,p)
 ****
 1  2  14  15  16  17  18  19  20  21  22  24  25  26 0
 3-21G
 ****
 27  35  36  37  38  39  40  41  42  43  44  45 0
 3-21G
 ****


