%nproc=1
%NoSave
%Mem=1900MB
#P OB98/GEN NMR

erre ene a

0 1
  C      178.045     262.854    -331.624
  O      179.200     263.623    -331.893
  P      179.374     264.423    -333.282
  C      180.565     262.387    -334.344
  O      180.649     263.758    -333.994
  C      181.963     261.819    -334.617
  O      182.583     262.613    -335.660
  C      182.900     261.836    -333.401
  O      183.729     260.672    -333.494
  C      183.713     263.099    -333.626
  O      184.953     263.071    -332.921
  C      183.845     263.099    -335.146
  N      184.164     264.413    -335.688
  C      185.513     264.743    -335.854
  O      186.395     263.953    -335.528
  N      185.831     265.968    -336.378
  C      184.891     266.822    -336.639
  N      185.258     267.998    -337.223
  C      183.465     266.559    -336.378
  C      183.178     265.340    -335.929
  O      179.440     265.905    -333.143
  O      178.169     263.896    -334.185
  H      185.511     262.371    -333.311
  H      177.326     264.394    -334.037
  H      182.717     267.315    -336.587
  H      182.152     265.049    -335.736
  H      184.607     262.369    -335.465
  H      183.146     263.965    -333.275
  H      182.361     261.822    -332.449
  H      181.851     260.802    -335.002
  H      186.215     268.070    -337.543
  H      179.967     262.298    -335.255
  H      184.582     268.558    -337.737
  H      180.064     261.830    -333.548
  P      183.641     259.582    -332.311
  C      186.117     259.522    -331.551
  O      185.069     258.858    -332.199
  O      182.737     258.440    -333.000
  O      183.004     260.028    -331.038
  H      182.279     257.936    -332.308
  H      187.003     258.887    -331.563
  H      185.858     259.738    -330.509
  H      186.359     260.463    -332.069
  H      178.131     262.409    -330.655
  H      177.948     262.085    -332.362
  H      177.182     263.485    -331.652

 3  4  5  6  7  8  9  10  11  12  13  23  27  28  29  30  32 0
 6-311+G(2d,p)
 ****
 34  35 0
 6-311+G(2d,p)
 ****
 1  2  14  15  16  17  18  19  20  21  22  24  25  26 0
 3-21G
 ****
 31  33  36  37  38  39  40  41  42  43  44  45  46 0
 3-21G
 ****


