%nproc=1
%NoSave
%Mem=1900MB
#P OB98/GEN NMR

erre ene a

0 1
  C     -748.556     -56.861     786.637
  O     -748.681     -57.914     787.572
  H     -749.407     -56.183     786.757
  H     -748.560     -57.261     785.617
  H     -747.632     -56.293     786.800
  P     -747.412     -58.862     787.830
  C     -748.203     -59.042     790.293
  O     -747.752     -59.740     789.134
  C     -747.972     -59.886     791.559
  O     -748.740     -61.119     791.452
  C     -746.494     -60.286     791.698
  O     -746.109     -60.487     793.059
  C     -746.449     -61.633     790.969
  O     -745.354     -62.453     791.389
  C     -747.818     -62.212     791.323
  N     -747.296     -66.802     789.161
  C     -746.451     -66.157     790.019
  N     -745.300     -66.812     790.359
  N     -746.675     -64.946     790.501
  C     -747.828     -64.393     790.017
  C     -748.734     -64.932     789.160
  C     -748.492     -66.281     788.662
  O     -749.200     -66.896     787.879
  N     -749.771     -64.062     788.906
  C     -749.486     -62.989     789.600
  N     -748.313     -63.152     790.330
  O     -746.289     -57.855     788.378
  O     -746.926     -59.643     786.648
  H     -745.537     -63.372     791.086
  H     -745.411     -58.237     788.247
  H     -747.094     -67.737     788.855
  H     -750.069     -62.088     789.651
  H     -747.787     -62.736     792.278
  H     -746.319     -61.437     789.906
  H     -744.998     -67.630     789.859
  H     -745.812     -59.576     791.237
  H     -744.542     -66.227     790.711
  H     -748.337     -59.350     792.434
  H     -749.269     -58.851     790.151
  H     -747.698     -58.084     790.376
  P     -745.209     -59.365     793.760
  C     -746.379     -59.896     796.103
  O     -745.206     -59.595     795.356
  O     -746.041     -58.024     793.567
  O     -743.829     -59.263     793.202
  H     -745.561     -57.405     792.996
  H     -746.126     -60.004     797.137
  H     -746.806     -60.809     795.744
  H     -747.087     -59.102     795.990

 6  7  8  9  10  11  12  13  14  15  26  29  33  34 0
 6-311+G(2d,p)
 ****
 36  38  39  40  41 0
 6-311+G(2d,p)
 ****
 1  2  3  4  5  16  17  18  19  20  21  22  23  24  25 0
 3-21G
 ****
 27  28  30  31  32  35  37  42  43  44  45  46  47 0
 3-21G
 ****
 48  49 0
 3-21G
 ****


