%nproc=1
%NoSave
%Mem=1900MB
#P OB98/GEN NMR

erre ene a

0 1
  C      -23.610    -230.805     199.531
  O      -23.460    -231.442     198.281
  H      -22.677    -230.287     199.770
  H      -23.813    -231.536     200.316
  H      -24.416    -230.067     199.486
  P      -24.615    -232.434     197.768
  C      -23.427    -234.535     198.643
  O      -24.562    -233.687     198.783
  C      -23.681    -235.918     199.242
  O      -22.623    -236.830     198.836
  C      -23.743    -235.930     200.777
  O      -24.874    -236.694     201.205
  C      -22.452    -236.638     201.181
  O      -22.546    -237.235     202.470
  C      -22.262    -237.600     200.000
  N      -20.896    -238.116     199.899
  C      -20.691    -239.419     200.367
  O      -21.623    -240.053     200.871
  N      -19.431    -239.955     200.297
  C      -18.448    -239.236     199.844
  N      -17.221    -239.818     199.810
  C      -18.615    -237.843     199.386
  C      -19.854    -237.353     199.432
  O      -24.533    -232.795     196.320
  O      -25.978    -231.705     198.171
  H      -22.914    -238.139     202.368
  H      -26.721    -232.073     197.628
  H      -17.764    -237.277     199.025
  H      -20.071    -236.339     199.101
  H      -22.945    -238.453     200.077
  H      -21.627    -235.910     201.202
  H      -23.801    -234.941     201.211
  H      -24.612    -236.318     198.804
  H      -17.147    -240.778     200.134
  H      -22.570    -234.061     199.137
  H      -16.385    -239.356     199.484
  H      -23.210    -234.644     197.570
  P      -26.170    -235.846     201.638
  C      -25.170    -234.768     203.774
  O      -25.663    -234.556     202.460
  O      -26.855    -236.766     202.751
  O      -27.103    -235.553     200.506
  H      -27.610    -237.257     202.366
  H      -24.871    -233.832     204.198
  H      -24.329    -235.428     203.737
  H      -25.939    -235.203     204.377

 6  7  8  9  10  11  12  13  14  15  16  26  30  31  32  33  35 0
 6-311+G(2d,p)
 ****
 37  38 0
 6-311+G(2d,p)
 ****
 1  2  3  4  5  17  18  19  20  21  22  23  24  25 0
 3-21G
 ****
 27  28  29  34  36  39  40  41  42  43  44  45  46 0
 3-21G
 ****


