%nproc=1
%NoSave
%Mem=1900MB
#P OB98/GEN NMR

erre ene a

0 1
  C     -722.256     -11.714     208.588
  O     -723.153     -12.798     208.730
  P     -724.528     -12.630     209.529
  C     -723.803     -14.522     211.202
  O     -724.330     -13.234     210.999
  C     -723.726     -14.795     212.713
  O     -722.715     -13.973     213.315
  C     -725.055     -14.495     213.402
  O     -725.838     -15.678     213.520
  C     -724.616     -13.925     214.741
  O     -724.282     -14.990     215.658
  C     -723.341     -13.143     214.337
  N     -723.502     -11.786     213.792
  C     -723.842     -10.735     214.644
  O     -723.996     -10.862     215.856
  N     -724.039      -9.520     214.036
  C     -723.870      -9.252     212.706
  O     -724.276      -8.235     212.152
  C     -723.248     -10.325     211.921
  C     -723.119     -11.526     212.480
  O     -725.496     -13.692     208.827
  O     -725.103     -11.252     209.530
  H     -723.854     -14.576     216.428
  H     -726.071     -13.250     208.177
  H     -724.418      -8.789     214.629
  H     -722.978     -10.115     210.898
  H     -722.699     -12.346     211.902
  H     -722.641     -13.075     215.182
  H     -725.416     -13.358     215.212
  H     -725.604     -13.715     212.854
  H     -723.448     -15.848     212.871
  H     -722.807     -14.603     210.755
  H     -724.436     -15.268     210.716
  P     -727.423     -15.557     213.679
  C     -727.119     -15.324     216.213
  O     -727.652     -14.741     215.044
  O     -728.183     -16.841     213.564
  O     -727.836     -14.522     212.521
  H     -728.151     -15.008     211.736
  H     -727.190     -14.600     217.025
  H     -726.080     -15.603     216.064
  H     -727.711     -16.208     216.481
  H     -721.402     -12.029     208.025
  H     -721.942     -11.381     209.555
  H     -722.745     -10.911     208.076

 3  4  5  6  7  8  9  10  11  12  13  23  28  29  30  31  32 0
 6-311+G(2d,p)
 ****
 33  34 0
 6-311+G(2d,p)
 ****
 1  2  14  15  16  17  18  19  20  21  22  24  25  26  27 0
 3-21G
 ****
 35  36  37  38  39  40  41  42  43  44  45 0
 3-21G
 ****


