%nproc=1
%NoSave
%Mem=1900MB
#P OB98/GEN NMR

erre ene a

0 1
  C      -54.297      18.214      56.533
  O      -54.364      17.038      57.335
  P      -55.617      16.850      58.315
  C      -56.069      14.255      58.064
  O      -55.663      15.349      58.855
  C      -56.018      12.971      58.909
  O      -54.687      12.413      58.895
  C      -56.392      13.198      60.372
  O      -57.791      13.124      60.581
  C      -55.617      12.098      61.067
  O      -56.291      10.835      60.914
  C      -54.295      12.105      60.263
  N      -53.234      13.050      60.674
  C      -52.172      12.602      61.455
  O      -52.041      11.445      61.846
  N      -51.225      13.538      61.776
  C      -51.136      14.802      61.272
  O      -50.232      15.578      61.550
  C      -52.200      15.179      60.335
  C      -53.185      14.311      60.094
  O      -56.879      16.944      57.340
  O      -55.689      17.854      59.423
  H      -55.852      10.200      61.507
  H      -57.418      17.729      57.555
  H      -50.486      13.249      62.400
  H      -52.144      16.155      59.874
  H      -53.979      14.581      59.401
  H      -53.842      11.107      60.257
  H      -55.550      12.277      62.137
  H      -55.998      14.157      60.718
  H      -56.699      12.236      58.461
  H      -55.426      14.148      57.187
  H      -57.084      14.425      57.694
  P      -58.639      14.465      60.786
  C      -60.525      13.276      59.519
  O      -60.179      14.025      60.667
  O      -58.234      15.631      59.949
  O      -58.487      14.769      62.354
  H      -57.763      15.416      62.514
  H      -61.549      12.908      59.636
  H      -59.853      12.423      59.401
  H      -60.478      13.913      58.631
  H      -53.408      18.190      55.939
  H      -54.280      19.077      57.166
  H      -55.153      18.258      55.893

 3  4  5  6  7  8  9  10  11  12  13  23  28  29  30  31  32 0
 6-311+G(2d,p)
 ****
 33  34 0
 6-311+G(2d,p)
 ****
 1  2  14  15  16  17  18  19  20  21  22  24  25  26  27 0
 3-21G
 ****
 35  36  37  38  39  40  41  42  43  44  45 0
 3-21G
 ****


