%nproc=1
%NoSave
%Mem=1900MB
#P OB98/GEN NMR

erre ene a

0 1
  C       58.643      21.047     -63.890
  O       58.845      19.646     -63.834
  P       59.406      19.032     -62.459
  C       61.548      19.393     -61.034
  O       60.890      19.616     -62.276
  C       62.619      20.454     -60.773
  O       61.982      21.752     -60.685
  C       63.418      20.231     -59.489
  O       64.768      20.625     -59.741
  C       62.795      21.207     -58.510
  O       63.702      21.562     -57.468
  C       62.400      22.360     -59.447
  N       61.348      23.196     -58.879
  C       61.622      24.561     -58.757
  O       62.738      24.993     -59.046
  N       60.648      25.390     -58.262
  C       59.536      24.885     -57.826
  N       58.601      25.748     -57.348
  C       59.256      23.436     -57.823
  C       60.185      22.661     -58.378
  O       59.657      17.497     -62.830
  O       58.494      19.193     -61.289
  H       63.212      22.104     -56.810
  H       59.510      16.924     -62.053
  H       58.328      23.064     -57.414
  H       60.056      21.589     -58.441
  H       63.269      22.994     -59.665
  H       61.903      20.760     -58.055
  H       63.394      19.192     -59.148
  H       63.291      20.480     -61.639
  H       58.823      26.735     -57.346
  H       62.036      18.415     -61.060
  H       57.707      25.446     -56.987
  H       60.808      19.384     -60.228
  P       65.773      20.678     -58.492
  C       66.581      22.540     -56.922
  O       65.669      22.179     -57.939
  O       67.197      20.706     -59.230
  O       65.709      19.579     -57.485
  H       67.910      20.674     -58.568
  H       66.494      23.614     -56.738
  H       67.606      22.315     -57.228
  H       66.339      22.005     -55.998
  H       58.270      21.315     -64.856
  H       59.572      21.549     -63.714
  H       57.935      21.335     -63.142

 3  4  5  6  7  8  9  10  11  12  13  21  23  27  28  29  30  32 0
 6-311+G(2d,p)
 ****
 34  35 0
 6-311+G(2d,p)
 ****
 1  2  14  15  16  17  18  19  20  22  24  25  26 0
 3-21G
 ****
 31  33  36  37  38  39  40  41  42  43  44  45  46 0
 3-21G
 ****


