%nproc=1
%NoSave
%Mem=1900MB
#P OB98/GEN NMR

erre ene a

0 1
  C     -392.649    -273.127    -226.810
  O     -391.745    -273.841    -225.982
  P     -392.069    -275.383    -225.680
  C     -389.561    -276.174    -225.818
  O     -390.730    -275.991    -225.036
  C     -388.437    -276.751    -224.955
  O     -388.955    -277.794    -224.105
  C     -387.301    -277.394    -225.745
  O     -386.433    -276.426    -226.307
  C     -386.665    -278.276    -224.677
  O     -385.802    -277.492    -223.833
  C     -387.897    -278.752    -223.880
  N     -388.325    -280.104    -224.233
  C     -388.318    -281.038    -223.200
  O     -387.977    -280.766    -222.050
  N     -388.700    -282.309    -223.544
  C     -389.018    -282.740    -224.798
  O     -389.313    -283.899    -225.056
  C     -388.973    -281.716    -225.852
  C     -388.633    -280.466    -225.526
  O     -392.113    -275.973    -227.165
  O     -393.316    -275.576    -224.884
  H     -391.558    -275.455    -227.775
  H     -385.365    -278.123    -223.226
  H     -388.726    -282.998    -222.808
  H     -389.211    -282.025    -226.863
  H     -388.589    -279.701    -226.293
  H     -387.687    -278.725    -222.804
  H     -386.060    -279.085    -225.102
  H     -387.715    -278.024    -226.540
  H     -388.050    -275.947    -224.313
  H     -389.251    -275.206    -226.227
  H     -389.792    -276.845    -226.651
  P     -386.538    -276.205    -227.898
  C     -386.944    -273.686    -227.337
  O     -386.299    -274.640    -228.148
  O     -388.105    -276.410    -228.141
  O     -385.661    -277.122    -228.689
  H     -388.653    -275.983    -227.460
  H     -386.401    -272.736    -227.414
  H     -386.959    -273.995    -226.288
  H     -387.967    -273.534    -227.688
  H     -392.309    -272.119    -226.923
  H     -393.620    -273.127    -226.361
  H     -392.700    -273.596    -227.770

 3  4  5  6  7  8  9  10  11  12  13  24  28  29  30  31  32 0
 6-311+G(2d,p)
 ****
 33  34 0
 6-311+G(2d,p)
 ****
 1  2  14  15  16  17  18  19  20  21  22  23  25  26  27 0
 3-21G
 ****
 35  36  37  38  39  40  41  42  43  44  45 0
 3-21G
 ****


