%nproc=1
%NoSave
%Mem=1900MB
#P OB98/GEN NMR

erre ene a

0 1
  C      -89.575      36.046     469.205
  O      -88.452      35.194     469.130
  H      -90.419      35.550     468.721
  H      -89.366      36.980     468.679
  H      -89.839      36.260     470.242
  P      -87.171      35.522     470.034
  C      -85.587      34.147     468.528
  O      -86.131      34.319     469.828
  C      -85.071      32.714     468.339
  O      -83.808      32.573     469.042
  C      -86.036      31.687     468.940
  O      -85.956      30.427     468.276
  C      -85.515      31.531     470.359
  O      -85.895      30.292     470.962
  C      -84.009      31.676     470.147
  N      -81.907      30.566     474.660
  C      -82.705      29.783     473.849
  N      -82.973      28.530     474.303
  N      -83.211      30.187     472.712
  C      -82.919      31.478     472.425
  C      -82.159      32.363     473.157
  C      -81.580      31.889     474.394
  O      -80.884      32.552     475.162
  N      -82.096      33.592     472.548
  C      -82.814      33.450     471.450
  N      -83.314      32.180     471.320
  O      -87.690      35.277     471.529
  O      -86.599      36.897     469.867
  H      -86.833      30.138     470.745
  H      -87.137      35.764     472.163
  H      -81.523      30.195     475.511
  H      -82.987      34.227     470.717
  H      -83.560      30.713     469.886
  H      -85.940      32.329     470.972
  H      -82.769      28.257     475.250
  H      -87.067      32.028     468.937
  H      -83.787      28.069     473.889
  H      -84.865      32.526     467.279
  H      -84.772      34.867     468.424
  H      -86.332      34.392     467.769
  P      -87.294      29.818     467.635
  C      -86.419      27.327     467.466
  O      -86.953      28.476     466.841
  O      -87.673      30.855     466.483
  O      -88.416      29.628     468.610
  H      -88.522      31.294     466.684
  H      -86.275      26.558     466.736
  H      -87.098      26.982     468.218
  H      -85.480      27.571     467.918

 6  7  8  9  10  11  12  13  14  15  26  29  33  34 0
 6-311+G(2d,p)
 ****
 36  38  39  40  41 0
 6-311+G(2d,p)
 ****
 1  2  3  4  5  16  17  18  19  20  21  22  23  24  25 0
 3-21G
 ****
 27  28  30  31  32  35  37  42  43  44  45  46  47 0
 3-21G
 ****
 48  49 0
 3-21G
 ****


