%nproc=1
%NoSave
%Mem=1900MB
#P OB98/GEN NMR

erre ene a

0 1
  C       80.468    -134.886     285.736
  O       81.862    -135.194     285.652
  P       82.560    -134.936     284.230
  C       83.025    -132.842     282.769
  O       82.791    -133.355     284.070
  C       83.682    -131.462     282.841
  O       82.888    -130.516     283.582
  C       85.047    -131.477     283.514
  O       86.034    -131.930     282.601
  C       85.218    -130.014     283.903
  O       85.729    -129.235     282.800
  C       83.783    -129.584     284.246
  N       84.337    -126.963     288.548
  C       84.923    -126.767     287.309
  N       85.751    -125.708     287.197
  N       84.708    -127.539     286.277
  C       83.854    -128.559     286.536
  C       83.194    -128.839     287.708
  C       83.440    -127.978     288.845
  O       82.933    -128.096     289.955
  N       82.359    -129.922     287.570
  C       82.619    -130.366     286.353
  N       83.467    -129.538     285.662
  O       81.395    -135.264     283.182
  O       83.764    -135.784     283.995
  H       85.165    -129.381     282.020
  H       81.603    -136.089     282.703
  H       84.543    -126.341     289.311
  H       82.198    -131.261     285.919
  H       83.557    -128.585     283.850
  H       85.932    -129.891     284.720
  H       85.958    -125.073     287.949
  H       85.018    -132.105     284.414
  H       86.182    -125.544     286.295
  H       83.780    -131.090     281.812
  H       82.088    -132.775     282.217
  H       83.662    -133.548     282.222
  P       86.845    -133.261     282.976
  C       86.767    -135.733     282.191
  O       86.096    -134.492     282.279
  O       86.531    -133.450     284.537
  O       88.314    -133.180     282.728
  H       87.353    -133.681     285.009
  H       86.027    -136.536     282.204
  H       87.463    -135.878     283.023
  H       87.322    -135.776     281.248
  H       80.115    -135.097     286.724
  H       79.928    -135.481     285.030
  H       80.318    -133.849     285.517

 3  4  5  6  7  8  9  10  11  12  23  26  30  31 0
 6-311+G(2d,p)
 ****
 33  35  36  37  38 0
 6-311+G(2d,p)
 ****
 1  2  13  14  15  16  17  18  19  20  21  22  24  25 0
 3-21G
 ****
 27  28  29  32  34  39  40  41  42  43  44  45  46  47  48  49 0
 3-21G
 ****


