%nproc=1
%NoSave
%Mem=1900MB
#P OB98/GEN NMR

erre ene a

0 1
  C      472.766     560.781     493.570
  O      473.277     559.697     492.814
  P      474.823     559.759     492.382
  C      476.135     560.641     490.298
  O      474.856     560.343     490.877
  C      476.051     560.660     488.777
  O      475.678     559.337     488.293
  C      475.056     561.677     488.219
  O      475.607     562.236     487.023
  C      473.860     560.843     487.846
  O      473.055     561.450     486.839
  C      474.540     559.516     487.433
  N      473.621     558.373     487.504
  C      472.942     558.022     486.342
  O      473.053     558.723     485.323
  N      472.102     556.936     486.345
  C      471.887     556.312     487.478
  N      471.057     555.233     487.428
  C      472.506     556.711     488.757
  C      473.357     557.719     488.681
  O      475.210     558.221     492.198
  O      475.713     560.452     493.361
  H      473.588     561.516     486.018
  H      476.140     558.064     492.428
  H      472.256     556.180     489.667
  H      473.881     558.086     489.564
  H      474.896     559.589     486.382
  H      473.218     560.668     488.728
  H      474.827     562.485     488.922
  H      477.058     560.863     488.378
  H      470.636     554.986     486.545
  H      476.831     559.861     490.599
  H      470.828     554.689     488.255
  H      476.488     561.586     490.686
  P      475.072     563.677     486.547
  C      473.774     564.219     484.390
  O      473.890     563.365     485.519
  O      476.250     564.137     485.541
  O      474.833     564.717     487.596
  H      476.076     565.039     485.223
  H      473.021     563.811     483.718
  H      474.744     564.271     483.860
  H      473.483     565.212     484.708
  H      471.732     560.609     493.786
  H      472.867     561.686     493.009
  H      473.313     560.866     494.486

 3  4  5  6  7  8  9  10  11  12  13  21  23  27  28  29  30  32 0
 6-311+G(2d,p)
 ****
 34  35 0
 6-311+G(2d,p)
 ****
 1  2  14  15  16  17  18  19  20  22  24  25  26 0
 3-21G
 ****
 31  33  36  37  38  39  40  41  42  43  44  45  46 0
 3-21G
 ****


