%nproc=1
%NoSave
%Mem=1900MB
#P OB98/GEN NMR

erre ene a

0 1
  C      -89.784    -965.284     506.308
  O      -89.981    -964.203     505.407
  H      -89.498    -964.870     507.285
  H      -88.994    -965.945     505.953
  H      -90.714    -965.843     506.429
  P      -90.149    -964.544     503.851
  C      -88.481    -965.012     501.932
  O      -88.670    -964.947     503.341
  C      -87.237    -965.812     501.567
  O      -86.038    -965.142     502.017
  C      -87.171    -967.184     502.229
  O      -88.144    -968.102     501.785
  C      -85.692    -967.540     502.069
  O      -85.395    -968.073     500.777
  C      -85.029    -966.154     502.234
  N      -84.382    -965.991     503.529
  C      -83.040    -966.384     503.605
  O      -82.419    -966.853     502.642
  N      -82.437    -966.233     504.812
  C      -83.039    -965.794     505.957
  O      -82.442    -965.695     507.029
  C      -84.468    -965.435     505.841
  C      -85.061    -965.542     504.645
  O      -90.803    -963.477     503.016
  O      -90.922    -965.942     503.835
  H      -84.482    -968.408     500.811
  H      -91.299    -966.136     502.943
  H      -81.468    -966.496     504.893
  H      -84.974    -965.085     506.734
  H      -86.113    -965.287     504.533
  H      -84.268    -965.995     501.453
  H      -85.355    -968.271     502.810
  H      -87.337    -967.066     503.307
  H      -87.184    -965.893     500.475
  H      -88.369    -963.984     501.559
  H      -89.368    -965.459     501.468
  P      -88.896    -969.134     502.734
  C      -88.226    -970.935     504.512
  O      -87.799    -969.947     503.589
  O      -90.021    -969.912     502.133
  O      -89.531    -968.137     503.851
  H      -90.386    -968.535     504.133
  H      -87.373    -971.371     504.988
  H      -88.772    -971.695     503.994
  H      -88.855    -970.485     505.251

 6  7  8  9  10  11  12  13  14  15  16  26  31  32  33  34  35 0
 6-311+G(2d,p)
 ****
 36  37 0
 6-311+G(2d,p)
 ****
 1  2  3  4  5  17  18  19  20  21  22  23  24  25 0
 3-21G
 ****
 27  28  29  30  38  39  40  41  42  43  44  45 0
 3-21G
 ****


