%nproc=1
%NoSave
%Mem=1900MB
#P OB98/GEN NMR

erre ene a

0 1
  C      238.050    -237.264     115.356
  O      238.404    -237.268     116.725
  H      237.965    -238.299     115.013
  H      238.823    -236.760     114.768
  H      237.088    -236.764     115.213
  P      238.560    -235.835     117.430
  C      241.114    -235.494     117.078
  O      239.795    -235.108     116.711
  C      242.088    -235.120     115.964
  O      241.678    -235.751     114.726
  C      242.139    -233.628     115.663
  O      242.919    -232.913     116.603
  C      242.729    -233.632     114.261
  O      244.159    -233.734     114.296
  C      242.120    -234.897     113.646
  N      240.844    -233.609     108.873
  C      242.030    -233.931     109.433
  N      242.284    -234.276     110.714
  C      241.150    -234.297     111.433
  C      239.870    -233.999     110.999
  C      239.733    -233.642     109.646
  N      238.532    -233.290     109.079
  N      238.968    -234.093     112.039
  C      239.687    -234.452     113.082
  N      241.010    -234.592     112.763
  O      239.128    -236.206     118.880
  O      237.306    -235.031     117.514
  H      244.473    -232.984     114.841
  H      238.399    -236.189     119.529
  H      242.890    -233.897     108.770
  H      239.302    -234.615     114.081
  H      242.852    -235.468     113.060
  H      242.475    -232.716     113.731
  H      241.123    -233.218     115.615
  H      243.083    -235.500     116.226
  H      241.144    -236.576     117.237
  H      241.384    -234.989     118.011
  H      238.517    -232.979     108.122
  H      237.716    -233.200     109.674
  P      242.261    -231.623     117.290
  C      243.153    -230.039     115.418
  O      242.031    -230.535     116.135
  O      243.453    -231.004     118.161
  O      241.056    -231.909     118.120
  H      243.097    -230.620     118.985
  H      242.825    -229.327     114.690
  H      243.649    -230.850     114.926
  H      243.831    -229.567     116.098

 6  7  8  9  10  11  12  13  14  15  25  28  32  33  34  35 0
 6-311+G(2d,p)
 ****
 36  37  40 0
 6-311+G(2d,p)
 ****
 1  2  3  4  5  16  17  18  19  20  21  22  23  24 0
 3-21G
 ****
 26  27  29  30  31  38  39 41  42  43  44  45  46  47  48 0
 3-21G
 ****


