%nproc=1
%NoSave
%Mem=1900MB
#P OB98/GEN NMR

erre ene a

0 1
  C     -157.557     -58.265      64.146
  O     -157.452     -59.594      64.627
  P     -157.602     -60.802      63.583
  C     -159.619     -61.689      62.154
  O     -159.171     -60.932      63.262
  C     -161.149     -61.629      62.054
  O     -161.549     -60.253      61.792
  C     -161.749     -62.501      60.942
  O     -163.005     -62.999      61.423
  C     -161.966     -61.504      59.815
  O     -162.940     -61.942      58.878
  C     -162.373     -60.258      60.610
  N     -162.202     -59.009      59.863
  C     -163.192     -58.659      58.949
  O     -164.187     -59.345      58.719
  N     -162.985     -57.485      58.274
  C     -161.883     -56.682      58.367
  O     -161.742     -55.650      57.724
  C     -160.850     -57.129      59.311
  C     -161.057     -58.248      60.011
  O     -157.291     -62.061      64.520
  O     -156.725     -60.671      62.385
  H     -157.621     -61.951      65.428
  H     -162.559     -62.679      58.366
  H     -163.708     -57.190      57.630
  H     -159.954     -56.527      59.406
  H     -160.309     -58.599      60.712
  H     -163.415     -60.347      60.941
  H     -161.024     -61.350      59.279
  H     -161.101     -63.335      60.667
  H     -161.569     -61.910      63.029
  H     -159.315     -62.732      62.275
  H     -159.158     -61.306      61.240
  P     -163.546     -64.392      60.827
  C     -164.005     -65.316      58.420
  O     -163.666     -64.218      59.240
  O     -165.079     -64.327      61.308
  O     -162.836     -65.608      61.319
  H     -165.499     -63.480      61.110
  H     -164.361     -64.940      57.455
  H     -164.796     -65.924      58.866
  H     -163.119     -65.934      58.252
  H     -157.435     -57.581      64.959
  H     -158.519     -58.122      63.700
  H     -156.796     -58.089      63.415

 3  4  5  6  7  8  9  10  11  12  13  24  28  29  30  31  32 0
 6-311+G(2d,p)
 ****
 33  34 0
 6-311+G(2d,p)
 ****
 1  2  14  15  16  17  18  19  20  21  22  23  25  26  27 0
 3-21G
 ****
 35  36  37  38  39  40  41  42  43  44  45 0
 3-21G
 ****


