%nproc=1
%NoSave
%Mem=1900MB
#P OB98/GEN NMR

erre ene a

0 1
  C     -170.330    -205.639      95.565
  O     -169.143    -204.918      95.194
  P     -169.291    -203.549      94.361
  C     -169.775    -204.864      92.149
  O     -169.015    -203.864      92.810
  C     -169.633    -204.719      90.629
  O     -170.112    -203.424      90.197
  C     -168.196    -204.795      90.123
  O     -167.715    -206.128      90.091
  C     -168.330    -204.168      88.742
  O     -168.798    -205.133      87.781
  C     -169.403    -203.087      88.987
  N     -168.835    -201.742      89.063
  C     -168.841    -201.001      87.886
  O     -169.236    -201.445      86.811
  N     -168.339    -199.725      87.982
  C     -167.782    -199.164      89.093
  O     -167.332    -198.026      89.106
  C     -167.731    -200.028      90.288
  C     -168.248    -201.252      90.213
  O     -167.954    -202.761      94.780
  O     -170.504    -202.735      94.661
  H     -168.726    -204.712      86.904
  H     -168.115    -201.800      94.718
  H     -168.359    -199.166      87.143
  H     -167.278    -199.624      91.180
  H     -168.220    -201.902      91.086
  H     -170.147    -203.102      88.183
  H     -167.380    -203.773      88.363
  H     -167.548    -204.163      90.745
  H     -170.251    -205.493      90.152
  H     -170.828    -204.757      92.418
  H     -169.426    -205.850      92.475
  P     -167.109    -206.708      91.461
  C     -164.853    -205.487      90.949
  O     -165.522    -206.693      91.261
  O     -167.528    -208.249      91.354
  O     -167.628    -206.009      92.674
  H     -167.528    -208.568      90.432
  H     -165.335    -204.630      91.418
  H     -164.840    -205.353      89.863
  H     -163.822    -205.554      91.312
  H     -170.057    -206.519      96.110
  H     -170.868    -205.918      94.683
  H     -170.948    -205.017      96.178

 3  4  5  6  7  8  9  10  11  12  13  23  28  29  30  31  32 0
 6-311+G(2d,p)
 ****
 33  34 0
 6-311+G(2d,p)
 ****
 1  2  14  15  16  17  18  19  20  21  22  24  25  26 0
 3-21G
 ****
 27  35  36  37  38  39  40  41  42  43  44  45 0
 3-21G
 ****


