%nproc=1
%NoSave
%Mem=1900MB
#P OB98/GEN NMR

erre ene a

0 1
  C      227.198    -235.243      72.831
  O      227.655    -236.323      73.621
  H      226.436    -235.598      72.133
  H      226.749    -234.493      73.489
  H      228.025    -234.783      72.281
  P      228.613    -237.398      72.912
  C      230.589    -238.511      74.182
  O      229.182    -238.342      74.085
  C      230.961    -239.177      75.509
  O      230.973    -238.153      76.548
  C      229.990    -240.285      75.954
  O      230.754    -241.340      76.555
  C      229.157    -239.601      77.033
  O      228.610    -240.528      77.966
  C      230.178    -238.648      77.640
  N      227.857    -237.404      81.995
  C      228.656    -238.440      81.667
  N      229.280    -238.669      80.490
  C      229.066    -237.654      79.629
  C      228.283    -236.526      79.830
  C      227.639    -236.432      81.077
  N      226.768    -235.414      81.400
  N      228.268    -235.747      78.689
  C      229.006    -236.399      77.813
  N      229.508    -237.559      78.338
  O      229.885    -236.507      72.500
  O      228.026    -238.110      71.741
  H      228.030    -241.151      77.486
  H      229.733    -236.111      71.623
  H      228.807    -239.191      82.435
  H      229.183    -236.097      76.788
  H      230.846    -239.136      78.358
  H      228.330    -239.057      76.563
  H      229.378    -240.687      75.145
  H      231.983    -239.563      75.429
  H      231.068    -237.529      74.128
  H      226.272    -235.480      82.279
  H      226.511    -234.746      80.692
  H      230.942    -239.121      73.344
  P      231.122    -242.598      75.633
  C      233.071    -244.330      75.489
  O      232.412    -243.325      76.253
  O      231.688    -241.924      74.296
  O      229.963    -243.503      75.354
  H      231.469    -242.476      73.524
  H      233.904    -244.710      76.043
  H      233.417    -243.909      74.568
  H      232.387    -245.127      75.282

 6  7  8  9  10  11  12  13  14  15  25  28  32  33  34  35 0
 6-311+G(2d,p)
 ****
 36  39  40 0
 6-311+G(2d,p)
 ****
 1  2  3  4  5  16  17  18  19  20  21  22  23  24 0
 3-21G
 ****
 26  27  29  30  31  37  38  41  42  43  44  45  46  47 0
 3-21G
 ****
 48 0
 3-21G
 ****


