%nproc=1
%NoSave
%Mem=1900MB
#P OB98/GEN NMR

erre ene a

0 1
  C        5.698     290.365    -725.818
  O        6.626     289.601    -725.074
  H        4.686     290.081    -725.514
  H        5.809     290.147    -726.887
  H        5.840     291.435    -725.636
  P        8.179     289.918    -725.307
  C        8.326     288.867    -727.684
  O        8.382     290.057    -726.900
  C        8.919     289.108    -729.071
  O       10.285     289.609    -728.915
  C        8.987     287.848    -729.956
  O        8.755     288.248    -731.314
  C       10.448     287.422    -729.824
  O       10.866     286.591    -730.905
  C       11.120     288.790    -729.771
  N       15.887     287.832    -731.069
  C       14.740     287.888    -731.847
  N       14.893     287.658    -733.171
  N       13.557     288.154    -731.361
  C       13.568     288.399    -730.020
  C       14.627     288.361    -729.154
  C       15.932     288.039    -729.697
  O       16.983     287.949    -729.057
  N       14.221     288.643    -727.866
  C       12.925     288.837    -727.964
  N       12.479     288.708    -729.252
  O        8.883     288.526    -724.958
  O        8.734     291.041    -724.494
  H       11.836     286.462    -730.826
  H        9.163     288.508    -724.020
  H       16.776     287.602    -731.493
  H       12.265     289.081    -727.141
  H       11.188     289.269    -730.751
  H       10.595     286.864    -728.889
  H       15.773     287.494    -733.621
  H        8.279     287.057    -729.672
  H       14.063     287.745    -733.755
  H        8.349     289.908    -729.567
  H        7.277     288.562    -727.786
  H        8.889     288.076    -727.162
  P        7.246     288.234    -731.859
  C        7.620     286.086    -733.285
  O        6.879     286.716    -732.261
  O        7.383     288.953    -733.284
  O        6.273     288.932    -730.970
  H        6.532     289.387    -733.506
  H        7.255     285.091    -733.429
  H        8.653     286.050    -733.008
  H        7.514     286.640    -734.194

 6  7  8  9  10  11  12  13  14  15  26  29  33  34 0
 6-311+G(2d,p)
 ****
 36  38  39  40  41 0
 6-311+G(2d,p)
 ****
 1  2  3  4  5  16  17  18  19  20  21  22  23  24  25 0
 3-21G
 ****
 27  28  30  31  32  35  37  42  43  44  45  46  47 0
 3-21G
 ****
 48  49 0
 3-21G
 ****


