%nproc=1
%NoSave
%Mem=1900MB
#P OB98/GEN NMR

erre ene a

0 1
  C     -132.354    -294.838      52.286
  O     -131.865    -293.735      53.019
  H     -132.784    -294.500      51.341
  H     -131.524    -295.518      52.074
  H     -133.108    -295.374      52.869
  P     -132.925    -292.592      53.402
  C     -133.244    -293.845      55.650
  O     -133.057    -292.593      55.004
  C     -132.356    -293.929      56.888
  O     -131.025    -294.333      56.470
  C     -132.232    -292.618      57.680
  O     -132.657    -292.813      59.033
  C     -130.741    -292.318      57.686
  O     -130.270    -291.820      58.940
  C     -130.107    -293.662      57.346
  N     -125.390    -291.843      57.991
  C     -126.328    -292.231      58.882
  N     -127.523    -292.808      58.646
  C     -127.707    -293.002      57.327
  C     -126.833    -292.682      56.302
  C     -125.630    -292.058      56.676
  N     -124.699    -291.614      55.761
  N     -127.373    -293.025      55.077
  C     -128.568    -293.502      55.356
  N     -128.821    -293.489      56.702
  O     -134.320    -293.207      52.909
  O     -132.663    -291.257      52.790
  H     -130.378    -292.547      59.587
  H     -134.808    -292.540      52.395
  H     -126.088    -292.048      59.926
  H     -129.302    -293.821      54.627
  H     -129.966    -294.289      58.233
  H     -130.525    -291.568      56.915
  H     -132.796    -291.797      57.226
  H     -132.744    -294.728      57.537
  H     -132.975    -294.655      54.962
  H     -123.922    -291.073      56.110
  H     -124.919    -291.671      54.778
  H     -134.297    -293.952      55.919
  P     -133.815    -291.830      59.571
  C     -135.348    -293.532      60.808
  O     -134.402    -292.475      60.919
  O     -134.994    -292.054      58.513
  O     -133.401    -290.401      59.658
  H     -135.557    -291.255      58.462
  H     -135.641    -293.852      61.786
  H     -134.906    -294.352      60.282
  H     -136.208    -293.186      60.273

 6  7  8  9  10  11  12  13  14  15  25  28  32  33  34  35 0
 6-311+G(2d,p)
 ****
 36  39  40 0
 6-311+G(2d,p)
 ****
 1  2  3  4  5  16  17  18  19  20  21  22  23  24 0
 3-21G
 ****
 26  27  29  30  31  37  38  41  42  43  44  45  46  47  48 0
 3-21G
 ****


