%nproc=1
%NoSave
%Mem=1900MB
#P OB98/GEN NMR

erre ene a

0 1
  C      264.657    -567.556    -149.548
  O      264.904    -567.258    -150.912
  P      265.158    -565.731    -151.321
  C      266.813    -566.434    -153.194
  O      265.645    -565.702    -152.850
  C      266.886    -566.662    -154.703
  O      265.812    -567.548    -155.116
  C      266.758    -565.377    -155.527
  O      267.562    -565.486    -156.712
  C      265.306    -565.379    -155.960
  O      265.109    -564.592    -157.135
  C      265.071    -566.876    -156.156
  N      260.514    -566.101    -158.203
  C      261.763    -565.782    -158.695
  N      261.792    -565.086    -159.853
  N      262.882    -566.124    -158.112
  C      262.700    -566.812    -156.960
  C      261.512    -567.198    -156.377
  C      260.281    -566.804    -157.028
  O      259.146    -567.031    -156.627
  N      261.730    -567.914    -155.228
  C      263.039    -567.925    -155.089
  N      263.669    -567.237    -156.094
  O      266.479    -565.353    -150.499
  O      264.039    -564.803    -150.986
  H      265.346    -563.675    -156.904
  H      266.245    -564.787    -149.739
  H      259.678    -565.806    -158.680
  H      263.579    -568.390    -154.273
  H      265.463    -567.225    -157.118
  H      264.677    -564.970    -155.165
  H      260.968    -564.738    -160.313
  H      267.031    -564.462    -154.988
  H      262.693    -564.801    -160.211
  H      267.828    -567.177    -154.934
  H      266.789    -567.400    -152.686
  H      267.700    -565.889    -152.850
  P      268.514    -564.235    -157.033
  C      268.779    -565.467    -159.313
  O      268.714    -564.236    -158.623
  O      269.936    -564.699    -156.470
  O      268.057    -562.949    -156.436
  H      270.478    -563.924    -156.242
  H      267.935    -565.531    -160.004
  H      268.748    -566.326    -158.636
  H      269.711    -565.502    -159.884
  H      264.508    -568.609    -149.434
  H      263.781    -567.034    -149.222
  H      265.495    -567.249    -148.958

 3  4  5  6  7  8  9  10  11  12  23  26  30  31 0
 6-311+G(2d,p)
 ****
 33  35  36  37  38 0
 6-311+G(2d,p)
 ****
 1  2  13  14  15  16  17  18  19  20  21  22  24  25 0
 3-21G
 ****
 27  28  29  32  34  39  40  41  42  43  44  45  46  47  48  49 0
 3-21G
 ****


