%nproc=1
%NoSave
%Mem=1900MB
#P OB98/GEN NMR

erre ene a

0 1
  C     -172.832    -204.585     245.245
  O     -172.138    -205.811     245.123
  P     -172.096    -206.592     243.721
  C     -169.721    -207.538     243.391
  O     -170.593    -206.428     243.182
  C     -168.769    -207.266     244.558
  O     -169.507    -206.887     245.736
  C     -167.927    -208.469     244.966
  O     -166.858    -208.658     244.056
  C     -167.499    -208.063     246.371
  O     -166.364    -207.184     246.337
  C     -168.751    -207.318     246.888
  N     -169.553    -208.143     247.787
  C     -169.110    -208.204     249.113
  O     -168.084    -207.616     249.459
  N     -169.814    -208.973     250.012
  C     -170.850    -209.640     249.603
  N     -171.504    -210.393     250.534
  C     -171.336    -209.626     248.208
  C     -170.642    -208.865     247.362
  O     -173.170    -206.217     242.752
  O     -172.151    -208.130     244.168
  H     -166.158    -206.966     247.268
  H     -173.060    -208.387     244.467
  H     -172.195    -210.206     247.920
  H     -170.922    -208.798     246.318
  H     -168.460    -206.408     247.426
  H     -167.215    -208.929     246.977
  H     -168.559    -209.362     245.017
  H     -168.122    -206.423     244.276
  H     -171.128    -210.400     251.473
  H     -169.139    -207.696     242.480
  H     -172.299    -210.974     250.321
  H     -170.322    -208.438     243.581
  P     -166.624    -210.095     243.393
  C     -166.309    -209.552     240.904
  O     -167.190    -210.047     241.896
  O     -167.081    -211.260     244.210
  O     -165.035    -210.148     243.174
  H     -164.702    -211.024     243.454
  H     -166.668    -209.874     239.924
  H     -165.294    -209.933     241.055
  H     -166.297    -208.456     240.939
  H     -172.744    -204.224     246.248
  H     -173.865    -204.735     245.009
  H     -172.412    -203.869     244.570

 3  4  5  6  7  8  9  10  11  12  13  23  27  28  29  30  32 0
 6-311+G(2d,p)
 ****
 34  35 0
 6-311+G(2d,p)
 ****
 1  2  14  15  16  17  18  19  20  21  22  24  25  26 0
 3-21G
 ****
 31  33  36  37  38  39  40  41  42  43  44  45  46 0
 3-21G
 ****


