%nproc=1
%NoSave
%Mem=1900MB
#P OB98/GEN NMR

erre ene a

0 1
  C      -20.365     202.903     -66.474
  O      -20.666     202.415     -67.766
  H      -19.315     203.210     -66.453
  H      -20.513     202.117     -65.729
  H      -20.987     203.769     -66.230
  P      -22.185     202.041     -68.115
  C      -22.619     199.521     -68.457
  O      -22.452     200.577     -67.520
  C      -21.437     199.492     -69.423
  O      -20.197     199.653     -68.698
  C      -21.300     198.184     -70.190
  O      -22.248     198.102     -71.236
  C      -19.853     198.270     -70.647
  O      -19.730     199.099     -71.813
  C      -19.178     198.929     -69.426
  N      -18.495     197.966     -68.563
  C      -17.484     197.214     -69.150
  O      -17.177     197.304     -70.340
  N      -16.850     196.320     -68.327
  C      -17.195     196.034     -67.039
  O      -16.651     195.161     -66.371
  C      -18.288     196.842     -66.477
  C      -18.877     197.758     -67.251
  O      -22.586     202.227     -69.539
  O      -23.039     202.983     -67.139
  H      -18.804     199.017     -72.113
  H      -23.423     203.718     -67.654
  H      -16.123     195.756     -68.739
  H      -18.581     196.657     -65.454
  H      -19.687     198.358     -66.857
  H      -18.440     199.675     -69.755
  H      -19.442     197.293     -70.904
  H      -21.404     197.333     -69.506
  H      -21.537     200.341     -70.113
  H      -23.545     199.691     -69.017
  H      -22.701     198.572     -67.913
  P      -22.783     196.673     -71.720
  C      -22.186     195.990     -74.125
  O      -21.730     196.091     -72.780
  O      -24.208     196.640     -72.161
  O      -22.564     195.733     -70.442
  H      -23.425     195.378     -70.150
  H      -21.404     195.592     -74.738
  H      -22.460     196.961     -74.482
  H      -23.036     195.342     -74.166

 6  7  8  9  10  11  12  13  14  15  16  26  31  32  33  34  35 0
 6-311+G(2d,p)
 ****
 36  37 0
 6-311+G(2d,p)
 ****
 1  2  3  4  5  17  18  19  20  21  22  23  24  25 0
 3-21G
 ****
 27  28  29  30  38  39  40  41  42  43  44  45 0
 3-21G
 ****


