%nproc=1
%NoSave
%Mem=1900MB
#P OB98/GEN NMR

erre ene a

0 1
  C     -157.524     200.091     240.866
  O     -157.573     198.738     241.273
  H     -158.536     200.504     240.902
  H     -157.150     200.169     239.840
  H     -156.884     200.661     241.544
  P     -156.187     197.926     241.237
  C     -155.802     198.700     243.670
  O     -155.875     197.590     242.782
  C     -155.256     198.259     245.031
  O     -156.073     197.159     245.519
  C     -153.802     197.767     244.978
  O     -153.137     198.154     246.185
  C     -153.948     196.254     244.951
  O     -152.779     195.587     245.421
  C     -155.191     196.060     245.821
  N     -154.589     191.006     246.099
  C     -153.866     192.032     246.597
  N     -154.113     193.358     246.492
  C     -155.276     193.577     245.845
  C     -156.116     192.630     245.281
  C     -155.731     191.284     245.420
  N     -156.445     190.239     244.887
  N     -157.185     193.254     244.655
  C     -156.993     194.546     244.847
  N     -155.835     194.790     245.542
  O     -155.072     198.582     240.494
  O     -156.651     196.505     240.663
  H     -152.029     195.829     244.837
  H     -157.456     196.180     241.113
  H     -152.961     191.760     247.140
  H     -157.643     195.342     244.491
  H     -154.962     196.083     246.898
  H     -154.141     195.920     243.921
  H     -153.247     198.145     244.117
  H     -155.374     199.084     245.744
  H     -156.795     199.147     243.799
  H     -156.094     189.300     245.035
  H     -157.296     190.419     244.382
  H     -155.142     199.447     243.219
  P     -151.595     198.596     246.124
  C     -151.645     201.166     246.361
  O     -151.398     199.924     247.012
  O     -150.996     198.655     244.754
  O     -150.870     197.479     247.018
  H     -150.033     197.209     246.581
  H     -151.482     201.968     247.050
  H     -152.657     201.193     246.016
  H     -150.981     201.270     245.528

 6  7  8  9  10  11  12  13  14  15  25  28  32  33  34  35 0
 6-311+G(2d,p)
 ****
 36  39  40 0
 6-311+G(2d,p)
 ****
 1  2  3  4  5  16  17  18  19  20  21  22  23  24 0
 3-21G
 ****
 26  27  29  30  31  37  38  41  42  43  44  45  46  47 0
 3-21G
 ****
 48 0
 3-21G
 ****


