%nproc=1
%NoSave
%Mem=1900MB
#P OB98/GEN NMR

erre ene a

0 1
  C      593.408     330.944    -363.887
  O      592.082     330.842    -363.415
  H      593.785     331.946    -363.658
  H      593.435     330.800    -364.968
  H      594.056     330.210    -363.398
  P      591.363     329.411    -363.438
  C      590.573     327.817    -365.304
  O      591.456     328.870    -364.944
  C      589.987     328.074    -366.691
  O      589.077     329.194    -366.648
  C      591.025     328.429    -367.748
  O      591.729     327.276    -368.172
  C      590.143     329.069    -368.808
  O      589.486     328.063    -369.600
  C      589.123     329.837    -367.938
  N      589.439     331.263    -367.807
  C      588.815     332.120    -368.703
  O      588.062     331.735    -369.592
  N      589.099     333.456    -368.545
  C      589.990     333.984    -367.657
  O      590.249     335.184    -367.598
  C      590.645     333.025    -366.761
  C      590.348     331.728    -366.874
  O      589.997     329.358    -362.838
  O      592.385     328.462    -362.655
  H      589.133     327.402    -368.970
  H      592.079     328.332    -361.739
  H      588.663     334.091    -369.193
  H      591.367     333.409    -366.048
  H      590.825     331.005    -366.223
  H      588.118     329.755    -368.367
  H      590.708     329.694    -369.503
  H      591.716     329.186    -367.362
  H      589.412     327.187    -366.989
  H      589.761     327.770    -364.570
  H      591.122     326.868    -365.286
  P      593.233     327.384    -368.712
  C      594.369     327.584    -370.995
  O      593.164     327.771    -370.266
  O      594.110     326.218    -368.398
  O      593.792     328.720    -368.029
  H      594.410     328.495    -367.307
  H      594.217     327.870    -372.015
  H      594.656     326.554    -370.952
  H      595.142     328.187    -370.567

 6  7  8  9  10  11  12  13  14  15  16  26  31  32  33  34  35 0
 6-311+G(2d,p)
 ****
 36  37 0
 6-311+G(2d,p)
 ****
 1  2  3  4  5  17  18  19  20  21  22  23  24  25 0
 3-21G
 ****
 27  28  29  30  38  39  40  41  42  43  44  45 0
 3-21G
 ****


