%nproc=1
%NoSave
%Mem=1900MB
#P OB98/GEN NMR

erre ene a

0 1
  C     -895.872    -369.512    1801.355
  O     -895.082    -369.785    1800.195
  H     -896.862    -369.208    1801.041
  H     -895.422    -368.726    1801.938
  H     -895.972    -370.419    1801.960
  P     -893.632    -370.411    1800.395
  C     -893.882    -372.704    1799.169
  O     -893.842    -372.024    1800.439
  C     -895.302    -372.682    1798.590
  O     -895.702    -371.273    1798.377
  C     -895.492    -373.429    1797.279
  O     -896.832    -373.898    1797.216
  C     -895.272    -372.301    1796.281
  O     -895.612    -372.669    1794.956
  C     -896.072    -371.184    1796.956
  N     -895.862    -369.849    1796.446
  C     -896.912    -369.230    1795.734
  O     -897.992    -369.802    1795.505
  N     -896.652    -367.977    1795.264
  C     -895.512    -367.262    1795.456
  O     -895.362    -366.113    1795.008
  C     -894.472    -367.973    1796.193
  C     -894.662    -369.182    1796.669
  O     -892.812    -369.864    1801.516
  O     -892.922    -370.219    1798.966
  H     -892.312    -369.454    1799.032
  H     -895.102    -373.442    1794.710
  H     -897.412    -367.566    1794.750
  H     -893.532    -367.376    1796.342
  H     -893.892    -369.707    1797.234
  H     -897.162    -371.420    1796.917
  H     -894.192    -372.023    1796.237
  H     -894.782    -374.276    1797.176
  H     -896.022    -373.032    1799.384
  H     -893.582    -373.741    1799.346
  H     -893.202    -372.214    1798.496
  P     -897.242    -375.403    1797.703
  C     -899.432    -374.835    1799.024
  O     -898.072    -375.255    1799.074
  O     -896.112    -376.357    1797.774
  O     -898.352    -375.871    1796.620
  H     -898.342    -376.851    1796.587
  H     -899.829    -374.790    1800.017
  H     -900.000    -375.533    1798.444
  H     -899.490    -373.866    1798.573

 6  7  8  9  10  11  12  13  14  15  16  27  31  32  33  34  35 0
 6-311+G(2d,p)
 ****
 36  37 0
 6-311+G(2d,p)
 ****
 1  2  3  4  5  17  18  19  20  21  22  23  24  25 0
 3-21G
 ****
 26  28  29  30  38  39  40  41  42  43  44  45 0
 3-21G
 ****


