%nproc=1
%NoSave
%Mem=1900MB
#P OB98/GEN NMR

erre ene a

0 1
  C      177.017      99.482      40.638
  O      177.956      99.378      39.588
  H      177.538      99.809      41.540
  H      176.556      98.510      40.835
  H      176.247     100.220      40.394
  P      177.439      98.907      38.142
  C      178.356      96.491      37.921
  O      177.256      97.314      38.290
  C      179.339      96.372      39.081
  O      178.672      95.945      40.293
  C      180.449      95.346      38.877
  O      181.449      95.755      37.963
  C      180.974      95.244      40.301
  O      181.772      96.403      40.604
  C      179.656      95.242      41.103
  N      179.189      93.893      41.420
  C      179.633      93.338      42.629
  O      180.384      93.972      43.368
  N      179.238      92.061      42.956
  C      178.491      91.387      42.137
  N      178.137      90.121      42.512
  C      178.019      91.921      40.845
  C      178.398      93.164      40.555
  O      178.261      99.355      36.974
  O      175.916      99.401      38.079
  H      182.536      96.391      39.996
  H      175.553      99.142      37.198
  H      177.419      91.306      40.186
  H      178.092      93.625      39.620
  H      179.768      95.806      42.040
  H      181.605      94.368      40.466
  H      180.032      94.369      38.592
  H      179.748      97.373      39.270
  H      178.477      89.782      43.403
  H      178.836      96.935      37.043
  H      177.620      89.500      41.905
  H      178.003      95.491      37.666
  P      182.399      94.607      37.357
  C      184.896      95.035      38.017
  O      183.638      94.476      38.371
  O      183.025      95.302      36.061
  O      181.718      93.309      37.043
  H      182.548      95.026      35.253
  H      185.600      94.856      38.803
  H      184.789      96.089      37.868
  H      185.247      94.581      37.114

 6  7  8  9  10  11  12  13  14  15  16  26  30  31  32  33  35 0
 6-311+G(2d,p)
 ****
 37  38 0
 6-311+G(2d,p)
 ****
 1  2  3  4  5  17  18  19  20  21  22  23  24  25 0
 3-21G
 ****
 27  28  29  34  36  39  40  41  42  43  44  45  46 0
 3-21G
 ****


