%nproc=1
%NoSave
%Mem=1900MB
#P OB98/GEN NMR

erre ene a

0 1
  C     1198.175     288.312    -447.301
  O     1198.718     288.183    -448.599
  H     1198.551     287.512    -446.652
  H     1198.483     289.279    -446.884
  H     1197.082     288.278    -447.332
  P     1198.371     286.831    -449.396
  C     1200.286     287.185    -451.125
  O     1199.744     286.367    -450.081
  C     1201.768     287.456    -450.839
  O     1201.911     288.314    -449.705
  C     1202.585     286.201    -450.499
  O     1202.968     285.481    -451.664
  C     1203.783     286.829    -449.802
  O     1204.677     287.380    -450.811
  C     1203.128     287.939    -448.985
  N     1203.999     288.827    -444.019
  C     1204.508     289.360    -445.150
  N     1204.222     289.072    -446.422
  C     1203.314     288.107    -446.509
  C     1202.689     287.447    -445.451
  C     1203.080     287.842    -444.150
  N     1202.549     287.260    -443.017
  N     1201.824     286.475    -445.913
  C     1201.888     286.588    -447.239
  N     1202.783     287.545    -447.652
  O     1197.494     287.347    -450.651
  O     1197.665     285.771    -448.610
  H     1204.154     288.020    -451.317
  H     1196.974     286.606    -451.012
  H     1205.267     290.151    -444.996
  H     1201.315     285.984    -447.926
  H     1203.758     288.837    -448.917
  H     1204.364     286.103    -449.223
  H     1202.054     285.551    -449.777
  H     1202.190     287.964    -451.725
  H     1199.751     288.129    -451.149
  H     1203.011     287.501    -442.137
  H     1201.972     286.460    -443.093
  H     1200.175     286.665    -452.086
  P     1202.860     283.869    -451.598
  C     1204.736     283.880    -453.412
  O     1204.251     283.318    -452.192
  O     1201.806     283.525    -452.759
  O     1202.445     283.315    -450.284
  H     1201.338     282.694    -452.560
  H     1205.663     283.415    -453.676
  H     1204.889     284.931    -453.285
  H     1204.020     283.715    -454.190

 6  7  8  9  10  11  12  13  14  15  25  28  32  33  34  35 0
 6-311+G(2d,p)
 ****
 36  39  40 0
 6-311+G(2d,p)
 ****
 1  2  3  4  5  16  17  18  19  20  21  22  23  24 0
 3-21G
 ****
 26  27  29  30  31  37  38  41  42  43  44  45  46  47 0
 3-21G
 ****
 48 0
 3-21G
 ****


