%nproc=1
%NoSave
%Mem=1900MB
#P OB98/GEN NMR

erre ene a

0 1
  C      -58.470     -14.819    -274.987
  O      -57.817     -15.391    -273.870
  H      -57.723     -14.564    -275.744
  H      -58.992     -13.905    -274.689
  H      -59.183     -15.528    -275.419
  P      -58.745     -15.944    -272.685
  C      -59.927     -18.075    -273.618
  O      -58.835     -17.538    -272.885
  C      -59.553     -19.459    -274.161
  O      -58.428     -19.309    -275.070
  C      -59.138     -20.448    -273.065
  O      -59.605     -21.756    -273.410
  C      -57.615     -20.414    -273.128
  O      -56.998     -21.583    -272.608
  C      -57.394     -20.219    -274.633
  N      -56.071     -19.673    -274.938
  C      -54.988     -20.551    -274.895
  O      -55.079     -21.770    -274.701
  N      -53.756     -19.988    -275.098
  C      -53.499     -18.654    -275.305
  O      -52.371     -18.208    -275.457
  C      -54.683     -17.778    -275.323
  C      -55.890     -18.317    -275.140
  O      -60.211     -15.443    -273.101
  O      -58.362     -15.517    -271.309
  H      -60.395     -14.565    -272.717
  H      -57.382     -22.358    -273.072
  H      -52.965     -20.610    -275.077
  H      -54.516     -16.717    -275.477
  H      -56.778     -17.691    -275.138
  H      -57.537     -21.168    -275.167
  H      -57.238     -19.553    -272.565
  H      -59.508     -20.171    -272.079
  H      -60.400     -19.853    -274.746
  H      -60.158     -17.408    -274.458
  H      -60.803     -18.148    -272.966
  P      -60.934     -22.282    -272.676
  C      -62.691     -22.476    -274.607
  O      -61.742     -23.130    -273.779
  O      -61.770     -20.928    -272.519
  O      -60.647     -23.002    -271.396
  H      -61.671     -20.325    -273.282
  H      -63.130     -23.186    -275.277
  H      -62.203     -21.708    -275.171
  H      -63.456     -22.040    -273.998

 6  7  8  9  10  11  12  13  14  15  16  27  31  32  33  34  35 0
 6-311+G(2d,p)
 ****
 36  37 0
 6-311+G(2d,p)
 ****
 1  2  3  4  5  17  18  19  20  21  22  23  24  25 0
 3-21G
 ****
 26  28  29  30  38  39  40  41  42  43  44  45 0
 3-21G
 ****


