%nproc=1
%NoSave
%Mem=1900MB
#P OB98/GEN NMR

erre ene a

0 1
  C      -37.602    -362.562    -222.073
  O      -37.336    -361.655    -221.021
  H      -36.707    -362.658    -222.690
  H      -38.420    -362.186    -222.693
  H      -37.863    -363.545    -221.671
  P      -38.485    -361.454    -219.923
  C      -36.907    -360.575    -218.046
  O      -37.972    -360.290    -218.942
  C      -35.571    -360.478    -218.781
  O      -35.354    -359.095    -219.171
  C      -34.373    -360.907    -217.924
  O      -33.422    -361.578    -218.755
  C      -33.796    -359.585    -217.448
  O      -32.425    -359.654    -217.088
  C      -34.064    -358.693    -218.665
  N      -34.056    -357.271    -218.334
  C      -33.010    -356.502    -218.834
  O      -32.137    -356.917    -219.596
  N      -32.990    -355.194    -218.424
  C      -33.872    -354.604    -217.565
  O      -33.787    -353.431    -217.218
  C      -34.951    -355.469    -217.064
  C      -34.991    -356.741    -217.463
  O      -38.368    -362.771    -219.018
  O      -39.861    -361.246    -220.458
  H      -38.945    -363.476    -219.367
  H      -32.335    -360.306    -216.364
  H      -32.238    -354.622    -218.778
  H      -35.662    -355.037    -216.375
  H      -35.764    -357.412    -217.101
  H      -33.326    -358.894    -219.455
  H      -34.358    -359.226    -216.575
  H      -34.656    -361.551    -217.091
  H      -35.628    -361.068    -219.706
  H      -37.030    -361.590    -217.652
  H      -36.935    -359.864    -217.214
  P      -33.331    -363.177    -218.626
  C      -32.506    -363.615    -221.070
  O      -32.211    -363.639    -219.685
  O      -34.712    -363.626    -219.289
  O      -33.116    -363.638    -217.224
  H      -34.980    -363.074    -220.045
  H      -31.654    -363.952    -221.622
  H      -32.750    -362.616    -221.365
  H      -33.337    -364.259    -221.269

 6  7  8  9  10  11  12  13  14  15  16  27  31  32  33  34  35 0
 6-311+G(2d,p)
 ****
 36  37 0
 6-311+G(2d,p)
 ****
 1  2  3  4  5  17  18  19  20  21  22  23  24  25 0
 3-21G
 ****
 26  28  29  30  38  39  40  41  42  43  44  45 0
 3-21G
 ****


