%nproc=1
%NoSave
%Mem=1900MB
#P OB98/GEN NMR

erre ene a

0 1
  C     2222.091    -294.976    -111.257
  O     2221.893    -296.211    -110.600
  H     2222.892    -294.450    -110.740
  H     2221.180    -294.367    -111.191
  H     2222.363    -295.135    -112.289
  P     2220.704    -297.145    -111.135
  C     2222.323    -298.754    -112.312
  O     2221.284    -297.800    -112.489
  C     2222.615    -299.466    -113.645
  O     2221.530    -300.401    -113.916
  C     2222.714    -298.537    -114.854
  O     2223.717    -299.047    -115.772
  C     2221.377    -298.639    -115.522
  O     2221.397    -298.274    -116.880
  C     2221.026    -300.087    -115.207
  N     2217.231    -301.734    -118.216
  C     2218.593    -301.768    -118.358
  N     2219.516    -301.339    -117.493
  C     2218.931    -300.862    -116.370
  C     2217.601    -300.757    -116.086
  C     2216.684    -301.198    -117.084
  N     2215.332    -301.123    -116.988
  N     2217.386    -300.158    -114.833
  C     2218.623    -299.919    -114.390
  N     2219.573    -300.309    -115.286
  O     2219.375    -296.474    -111.296
  O     2220.739    -298.371    -110.115
  H     2220.486    -298.398    -117.228
  H     2221.639    -298.686    -109.970
  H     2218.943    -302.212    -119.273
  H     2218.841    -299.467    -113.424
  H     2221.484    -300.782    -115.958
  H     2220.666    -297.942    -115.000
  H     2222.983    -297.492    -114.565
  H     2223.531    -300.083    -113.527
  H     2222.090    -299.474    -111.558
  H     2214.778    -301.484    -117.743
  H     2214.918    -300.742    -116.132
  H     2223.251    -298.210    -111.999
  P     2225.159    -298.324    -115.824
  C     2226.559    -300.493    -115.748
  O     2226.262    -299.265    -115.076
  O     2225.198    -296.906    -115.378
  O     2225.597    -298.462    -117.381
  H     2225.934    -297.608    -117.673
  H     2227.288    -301.040    -115.187
  H     2226.945    -300.282    -116.723
  H     2225.666    -301.076    -115.837

 6  7  8  9  10  11  12  13  14  15  25  28  32  33  34  35 0
 6-311+G(2d,p)
 ****
 36  39  40 0
 6-311+G(2d,p)
 ****
 1  2  3  4  5  16  17  18  19  20  21  22  23  24 0
 3-21G
 ****
 26  27  29  30  31  37  38  41  42  43  44  45  46  47 0
 3-21G
 ****
 48 0
 3-21G
 ****


