%nproc=1
%NoSave
%Mem=1900MB
#P OB98/GEN NMR

erre ene a

0 1
  C       16.417      27.570     132.757
  O       16.874      26.240     132.595
  P       15.898      24.982     132.826
  C       16.917      24.916     135.203
  O       15.739      24.855     134.417
  C       16.598      24.588     136.665
  O       15.801      25.667     137.219
  C       15.814      23.282     136.861
  O       16.266      22.698     138.092
  C       14.382      23.766     136.996
  O       13.547      22.831     137.662
  C       14.589      25.086     137.747
  N       13.462      25.999     137.599
  C       12.313      25.736     138.348
  O       12.247      24.755     139.087
  N       11.247      26.597     138.242
  C       11.294      27.584     137.401
  N       10.238      28.445     137.375
  C       12.446      27.832     136.512
  C       13.488      27.025     136.681
  O       16.318      23.729     132.140
  O       14.456      25.516     132.390
  H       12.625      23.149     137.607
  H       14.292      25.436     131.417
  H       12.427      28.650     135.806
  H       14.386      27.146     136.092
  H       14.773      24.892     138.810
  H       13.962      23.941     135.998
  H       15.965      22.571     136.047
  H       17.542      24.556     137.223
  H        9.551      28.343     138.115
  H       17.317      25.932     135.150
  H       10.339      29.383     137.005
  H       17.666      24.228     134.798
  P       16.166      21.105     138.257
  C       14.229      21.041     139.983
  O       14.662      20.741     138.674
  O       16.957      20.874     139.636
  O       16.784      20.285     137.173
  H       17.316      19.964     139.651
  H       13.183      20.733     140.085
  H       14.294      22.115     140.174
  H       14.827      20.495     140.717
  H       17.219      28.250     132.557
  H       16.073      27.709     133.761
  H       15.613      27.757     132.076

 3  4  5  6  7  8  9  10  11  12  13  23  27  28  29  30  32 0
 6-311+G(2d,p)
 ****
 34  35 0
 6-311+G(2d,p)
 ****
 1  2  14  15  16  17  18  19  20  21  22  24  25  26 0
 3-21G
 ****
 31  33  36  37  38  39  40  41  42  43  44  45  46 0
 3-21G
 ****


