%nproc=1
%NoSave
%Mem=1900MB
#P OB98/GEN NMR

erre ene a

0 1
  C     1088.784    -152.811    -949.589
  O     1089.403    -151.761    -948.882
  H     1088.874    -152.616    -950.672
  H     1087.718    -152.858    -949.339
  H     1089.260    -153.768    -949.373
  P     1089.574    -151.956    -947.299
  C     1087.141    -151.211    -946.783
  O     1088.520    -150.959    -946.613
  C     1086.334    -149.940    -946.569
  O     1086.237    -149.617    -945.159
  C     1086.920    -148.699    -947.246
  O     1086.546    -148.620    -948.613
  C     1086.245    -147.588    -946.452
  O     1084.883    -147.433    -946.871
  C     1086.285    -148.165    -945.023
  N     1088.042    -146.006    -940.768
  C     1086.747    -146.195    -941.208
  N     1085.770    -145.716    -940.395
  N     1086.412    -146.770    -942.337
  C     1087.496    -147.182    -943.032
  C     1088.830    -147.060    -942.726
  C     1089.163    -146.411    -941.466
  O     1090.289    -146.243    -941.039
  N     1089.634    -147.615    -943.689
  C     1088.790    -148.023    -944.604
  N     1087.475    -147.784    -944.277
  O     1090.990    -151.283    -946.976
  O     1089.524    -153.364    -946.812
  H     1084.465    -148.328    -946.859
  H     1091.430    -151.779    -946.280
  H     1088.229    -145.532    -939.901
  H     1089.074    -148.534    -945.521
  H     1085.420    -147.867    -944.427
  H     1086.739    -146.614    -946.570
  H     1085.938    -145.211    -939.552
  H     1088.005    -148.637    -947.115
  H     1084.801    -145.869    -940.669
  H     1085.292    -150.116    -946.932
  H     1086.816    -151.968    -946.052
  H     1086.961    -151.613    -947.792
  P     1087.736    -148.537    -949.692
  C     1087.951    -145.941    -949.455
  O     1087.651    -147.037    -950.298
  O     1087.211    -149.450    -950.907
  O     1089.081    -148.968    -949.202
  H     1087.972    -149.753    -951.442
  H     1087.848    -145.029    -950.005
  H     1088.956    -146.030    -949.098
  H     1087.276    -145.935    -948.625

 6  7  8  9  10  11  12  13  14  15  26  29  33  34 0
 6-311+G(2d,p)
 ****
 36  38  39  40  41 0
 6-311+G(2d,p)
 ****
 1  2  3  4  5  16  17  18  19  20  21  22  23  24  25 0
 3-21G
 ****
 27  28  30  31  32  35  37  42  43  44  45  46  47 0
 3-21G
 ****
 48  49 0
 3-21G
 ****


