%nproc=1
%NoSave
%Mem=1900MB
#P OB98/GEN NMR

erre ene a

0 1
  C     -294.844     614.721    -385.761
  O     -294.864     613.433    -385.161
  P     -293.766     612.988    -384.074
  C     -295.235     610.875    -383.850
  O     -293.920     611.398    -383.937
  C     -295.196     609.434    -383.305
  O     -294.606     608.578    -384.309
  C     -294.388     609.269    -382.014
  O     -295.042     608.265    -381.222
  C     -293.052     608.773    -382.511
  O     -292.309     608.088    -381.521
  C     -293.488     607.893    -383.696
  N     -292.415     607.669    -384.663
  C     -291.281     606.997    -384.205
  O     -291.180     606.625    -383.032
  N     -290.262     606.738    -385.097
  C     -290.350     607.194    -386.312
  N     -289.348     606.876    -387.182
  C     -291.489     608.005    -386.797
  C     -292.476     608.178    -385.936
  O     -293.817     613.741    -382.792
  O     -292.373     613.119    -384.849
  H     -291.557     607.627    -381.962
  H     -291.998     614.033    -384.828
  H     -291.487     608.385    -387.812
  H     -293.363     608.730    -386.207
  H     -293.870     606.924    -383.327
  H     -292.442     609.622    -382.857
  H     -294.325     610.196    -381.436
  H     -296.229     609.105    -383.156
  H     -288.669     606.184    -386.861
  H     -295.672     610.870    -384.850
  H     -289.494     606.904    -388.187
  H     -295.854     611.521    -383.206
  P     -295.568     608.671    -379.760
  C     -297.058     606.554    -379.464
  O     -295.958     607.318    -378.987
  O     -297.016     609.286    -380.094
  O     -294.751     609.666    -379.000
  H     -297.260     609.915    -379.391
  H     -297.172     605.668    -378.833
  H     -296.870     606.218    -380.493
  H     -297.971     607.142    -379.428
  H     -295.658     614.806    -386.450
  H     -293.920     614.857    -386.283
  H     -294.939     615.469    -385.002

 3  4  5  6  7  8  9  10  11  12  13  23  27  28  29  30  32 0
 6-311+G(2d,p)
 ****
 34  35 0
 6-311+G(2d,p)
 ****
 1  2  14  15  16  17  18  19  20  21  22  24  25  26 0
 3-21G
 ****
 31  33  36  37  38  39  40  41  42  43  44  45  46 0
 3-21G
 ****


