%nproc=1
%NoSave
%Mem=1900MB
#P OB98/GEN NMR

erre ene a

0 1
  C      -72.528      -2.565    1281.368
  O      -71.548      -1.583    1281.091
  P      -70.001      -1.989    1281.032
  C      -69.805      -2.986    1283.386
  O      -69.435      -1.927    1282.528
  C      -68.831      -3.084    1284.570
  O      -67.494      -3.311    1284.086
  C      -68.759      -1.818    1285.418
  O      -69.888      -1.710    1286.281
  C      -67.429      -2.025    1286.136
  O      -67.606      -2.893    1287.288
  C      -66.590      -2.718    1285.064
  N      -62.814       0.647    1285.756
  C      -63.635       0.020    1286.634
  N      -64.651      -0.843    1286.367
  C      -64.787      -1.002    1285.036
  C      -64.058      -0.412    1284.020
  C      -63.003       0.439    1284.434
  N      -62.129       1.033    1283.554
  N      -64.518      -0.797    1282.791
  C      -65.530      -1.622    1283.043
  N      -65.685      -1.819    1284.392
  O      -69.186      -1.278    1279.999
  O      -70.034      -3.566    1280.735
  H      -66.736      -3.053    1287.666
  H      -69.576      -3.745    1279.890
  H      -63.452       0.219    1287.683
  H      -66.146      -2.087    1282.299
  H      -65.994      -3.544    1285.480
  H      -67.011      -1.094    1286.507
  H      -68.686      -0.936    1284.770
  H      -69.122      -3.949    1285.186
  H      -69.800      -3.918    1282.823
  H      -61.331       1.511    1283.949
  H      -62.059       0.674    1282.617
  H      -70.825      -2.816    1283.760
  P      -70.423      -0.257    1286.709
  C      -69.128      -0.181    1288.928
  O      -70.402      -0.228    1288.312
  O      -71.705       0.176    1286.080
  O      -69.214       0.719    1286.325
  H      -69.576       1.591    1286.071
  H      -68.684      -1.186    1288.922
  H      -69.248       0.137    1289.963
  H      -68.470       0.513    1288.414
  H      -73.497      -2.112    1281.367
  H      -72.338      -2.998    1282.328
  H      -72.490      -3.328    1280.619

 3  4  5  6  7  8  9  10  11  12  22  25  29  30  31  32 0
 6-311+G(2d,p)
 ****
 33  36  37 0
 6-311+G(2d,p)
 ****
 1  2  13  14  15  16  17  18  19  20  21  23  24  26 0
 3-21G
 ****
 27  28  34  35  38  39  40  41  42  43  44  45  46  47  48 0
 3-21G
 ****


