%nproc=1
%NoSave
%Mem=1900MB
#P OB98/GEN NMR

erre ene a

0 1
  C       73.067     -21.876      65.100
  O       73.788     -22.978      65.619
  H       72.025     -22.175      64.961
  H       73.480     -21.580      64.132
  H       73.106     -21.038      65.800
  P       75.347     -22.735      65.918
  C       75.963     -23.692      63.592
  O       76.005     -22.570      64.465
  C       76.459     -23.306      62.201
  O       75.615     -22.293      61.625
  C       77.872     -22.733      62.174
  O       78.839     -23.770      62.213
  C       77.864     -22.021      60.830
  O       78.071     -22.976      59.770
  C       76.431     -21.461      60.756
  N       76.929     -16.557      59.320
  C       77.318     -17.709      58.730
  N       77.191     -18.972      59.189
  C       76.590     -18.985      60.391
  C       76.138     -17.890      61.114
  C       76.320     -16.628      60.525
  N       75.912     -15.454      61.126
  N       75.575     -18.291      62.307
  C       75.637     -19.608      62.280
  N       76.275     -20.076      61.158
  O       75.991     -23.720      66.830
  O       75.322     -21.225      66.455
  H       78.235     -22.473      58.950
  H       74.681     -20.694      65.951
  H       77.793     -17.602      57.760
  H       75.222     -20.266      63.035
  H       76.016     -21.539      59.744
  H       78.660     -21.277      60.747
  H       78.020     -21.995      62.970
  H       76.384     -24.194      61.560
  H       74.945     -24.088      63.528
  H       76.232     -14.588      60.719
  H       75.572     -15.500      62.075
  H       76.608     -24.465      64.021
  P       80.356     -23.457      62.633
  C       80.708     -23.342      60.089
  O       81.055     -22.786      61.353
  O       81.099     -24.611      63.213
  O       80.244     -22.241      63.664
  H       80.898     -22.344      64.383
  H       81.230     -22.820      59.314
  H       79.653     -23.247      59.935
  H       80.980     -24.377      60.068

 6  7  8  9  10  11  12  13  14  15  25  28  32  33  34  35 0
 6-311+G(2d,p)
 ****
 36  39  40 0
 6-311+G(2d,p)
 ****
 1  2  3  4  5  16  17  18  19  20  21  22  23  24 0
 3-21G
 ****
 26  27  29  30  31  37  38  41  42  43  44  45  46  47 0
 3-21G
 ****
 48 0
 3-21G
 ****


