%nproc=1
%NoSave
%Mem=1900MB
#P OB98/GEN NMR

erre ene a

0 1
  C     -104.697    -531.263    -139.593
  O     -105.343    -531.893    -138.506
  H     -105.454    -530.938    -140.313
  H     -104.020    -531.967    -140.088
  H     -104.140    -530.389    -139.249
  P     -104.396    -532.428    -137.326
  C     -104.735    -532.179    -134.756
  O     -104.765    -531.558    -136.029
  C     -105.499    -531.331    -133.729
  O     -104.856    -530.024    -133.631
  C     -106.969    -531.072    -134.106
  O     -107.714    -530.904    -132.889
  C     -106.872    -529.736    -134.832
  O     -108.141    -529.148    -134.983
  C     -105.864    -529.030    -133.927
  N     -104.940    -524.030    -133.346
  C     -105.511    -524.941    -132.525
  N     -105.712    -526.257    -132.747
  C     -105.229    -526.622    -133.948
  C     -104.611    -525.810    -134.886
  C     -104.473    -524.449    -134.548
  N     -103.896    -523.516    -135.381
  N     -104.252    -526.541    -136.006
  C     -104.648    -527.774    -135.742
  N     -105.251    -527.864    -134.518
  O     -102.947    -531.893    -137.747
  O     -104.406    -533.908    -137.116
  H     -108.556    -528.977    -134.111
  H     -102.462    -532.588    -138.231
  H     -105.861    -524.560    -131.571
  H     -104.531    -528.624    -136.404
  H     -106.315    -528.723    -132.977
  H     -106.461    -529.870    -135.838
  H     -107.414    -531.875    -134.699
  H     -105.415    -531.801    -132.742
  H     -103.690    -532.288    -134.442
  H     -105.193    -533.172    -134.817
  H     -103.849    -522.563    -135.073
  H     -103.561    -523.813    -136.289
  P     -108.045    -532.194    -131.988
  C     -107.337    -533.096    -129.632
  O     -107.133    -532.145    -130.669
  O     -107.349    -533.371    -132.826
  O     -109.494    -532.483    -131.774
  H     -107.817    -534.214    -132.660
  H     -106.644    -532.912    -128.838
  H     -107.184    -534.082    -130.017
  H     -108.337    -533.009    -129.260

 6  7  8  9  10  11  12  13  14  15  25  28  32  33  34  35 0
 6-311+G(2d,p)
 ****
 36  37  40 0
 6-311+G(2d,p)
 ****
 1  2  3  4  5  16  17  18  19  20  21  22  23  24 0
 3-21G
 ****
 26  27  29  30  31  38  39 41  42  43  44  45  46  47  48 0
 3-21G
 ****


