%nproc=1
%NoSave
%Mem=1900MB
#P OB98/GEN NMR

erre ene a

0 1
  C     -122.662     -47.863    -139.101
  O     -122.754     -47.733    -137.696
  H     -123.307     -47.113    -139.565
  H     -122.993     -48.857    -139.416
  H     -121.632     -47.692    -139.425
  P     -121.918     -48.786    -136.822
  C     -120.097     -47.003    -136.425
  O     -121.045     -47.877    -135.823
  C     -119.331     -46.228    -135.352
  O     -120.290     -45.673    -134.412
  C     -118.349     -47.093    -134.553
  O     -117.193     -46.314    -134.235
  C     -119.115     -47.395    -133.276
  O     -118.252     -47.729    -132.194
  C     -119.908     -46.103    -133.093
  N     -121.428     -47.442    -128.421
  C     -120.210     -47.153    -128.927
  N     -119.897     -46.778    -130.186
  C     -121.010     -46.660    -130.938
  C     -122.315     -46.922    -130.561
  C     -122.509     -47.343    -129.232
  N     -123.739     -47.675    -128.717
  N     -123.171     -46.732    -131.629
  C     -122.397     -46.351    -132.630
  N     -121.079     -46.316    -132.261
  O     -121.143     -49.799    -137.598
  O     -123.044     -49.381    -135.852
  H     -118.785     -47.760    -131.371
  H     -123.594     -48.672    -135.465
  H     -119.376     -47.239    -128.235
  H     -122.736     -46.110    -133.632
  H     -119.314     -45.307    -132.625
  H     -119.789     -48.244    -133.442
  H     -118.052     -47.999    -135.078
  H     -118.821     -45.380    -135.825
  H     -120.605     -46.300    -137.094
  H     -123.788     -47.965    -127.751
  H     -124.560     -47.604    -129.302
  H     -119.409     -47.613    -137.020
  P     -115.855     -46.520    -135.092
  C     -115.874     -45.379    -137.404
  O     -115.627     -45.222    -136.014
  O     -115.736     -47.826    -135.805
  O     -114.699     -46.362    -133.990
  H     -114.014     -47.039    -134.148
  H     -115.688     -44.453    -137.906
  H     -116.893     -45.669    -137.555
  H     -115.227     -46.134    -137.798

 6  7  8  9  10  11  12  13  14  15  25  28  32  33  34  35 0
 6-311+G(2d,p)
 ****
 36  39  40 0
 6-311+G(2d,p)
 ****
 1  2  3  4  5  16  17  18  19  20  21  22  23  24 0
 3-21G
 ****
 26  27  29  30  31  37  38  41  42  43  44  45  46  47 0
 3-21G
 ****
 48 0
 3-21G
 ****


