%nproc=1
%NoSave
%Mem=1900MB
#P OB98/GEN NMR

erre ene a

0 1
  C      257.755     516.283      67.556
  O      258.416     515.786      66.401
  P      258.432     516.615      65.026
  C      261.005     516.649      64.774
  O      259.829     517.397      65.016
  C      261.950     517.414      63.848
  O      263.227     516.726      63.809
  C      261.449     517.548      62.405
  O      261.883     518.826      61.921
  C      262.177     516.432      61.691
  O      262.270     516.641      60.288
  C      263.522     516.446      62.425
  N      264.249     515.184      62.289
  C      265.090     515.040      61.183
  O      265.194     515.932      60.344
  N      265.802     513.871      61.056
  C      265.623     512.909      61.899
  N      266.398     511.798      61.762
  C      264.667     512.980      63.020
  C      264.041     514.144      63.166
  O      257.233     517.474      64.798
  O      258.665     515.506      63.901
  H      262.650     517.527      60.134
  H      257.824     515.075      63.604
  H      264.533     512.141      63.683
  H      263.337     514.296      63.970
  H      264.142     517.273      62.066
  H      261.649     515.486      61.851
  H      260.359     517.486      62.326
  H      262.129     518.404      64.286
  H      267.161     511.853      61.097
  H      260.720     515.707      64.285
  H      266.555     511.167      62.539
  H      261.495     516.406      65.726
  P      261.194     519.412      60.596
  C      259.256     520.401      62.015
  O      259.634     519.620      60.896
  O      261.175     518.121      59.642
  O      261.908     520.534      59.916
  H      261.170     518.411      58.709
  H      258.166     520.442      62.057
  H      259.640     521.418      61.917
  H      259.630     519.951      62.936
  H      257.863     515.583      68.358
  H      256.716     516.421      67.341
  H      258.188     517.220      67.839

 3  4  5  6  7  8  9  10  11  12  13  23  27  28  29  30  32 0
 6-311+G(2d,p)
 ****
 34  35 0
 6-311+G(2d,p)
 ****
 1  2  14  15  16  17  18  19  20  21  22  24  25  26 0
 3-21G
 ****
 31  33  36  37  38  39  40  41  42  43  44  45  46 0
 3-21G
 ****


