%nproc=1
%NoSave
%Mem=1900MB
#P OB98/GEN NMR

erre ene a

0 1
  C      -48.264    -660.241    -525.307
  O      -48.750    -659.993    -524.003
  H      -48.601    -661.229    -525.624
  H      -47.170    -660.230    -525.308
  H      -48.645    -659.496    -526.011
  P      -48.510    -658.553    -523.345
  C      -51.035    -658.110    -523.091
  O      -49.811    -657.673    -523.669
  C      -51.697    -656.958    -522.343
  O      -50.936    -656.630    -521.157
  C      -51.788    -655.664    -523.148
  O      -52.817    -655.746    -524.114
  C      -52.020    -654.657    -522.032
  O      -53.391    -654.669    -521.606
  C      -51.107    -655.214    -520.913
  N      -49.811    -654.531    -520.850
  C      -49.662    -653.591    -519.838
  O      -50.546    -653.320    -519.036
  N      -48.463    -652.931    -519.817
  C      -47.460    -653.052    -520.735
  O      -46.503    -652.289    -520.802
  C      -47.645    -654.113    -521.735
  C      -48.796    -654.785    -521.758
  O      -47.208    -657.900    -523.674
  O      -48.647    -658.829    -521.773
  H      -47.758    -658.884    -521.376
  H      -53.920    -654.336    -522.360
  H      -48.359    -652.210    -519.114
  H      -46.845    -654.287    -522.444
  H      -48.966    -655.552    -522.508
  H      -51.590    -655.112    -519.937
  H      -51.787    -653.637    -522.341
  H      -50.820    -655.450    -523.622
  H      -52.696    -657.287    -522.021
  H      -50.819    -658.927    -522.393
  H      -51.694    -658.484    -523.884
  P      -52.571    -655.273    -525.623
  C      -53.502    -657.229    -526.997
  O      -52.331    -656.581    -526.521
  O      -51.545    -654.206    -525.790
  O      -54.009    -654.766    -526.109
  H      -53.926    -653.854    -526.469
  H      -53.225    -658.082    -527.580
  H      -54.064    -656.550    -527.603
  H      -54.099    -657.543    -526.166

 6  7  8  9  10  11  12  13  14  15  16  27  31  32  33  34  35 0
 6-311+G(2d,p)
 ****
 36  37 0
 6-311+G(2d,p)
 ****
 1  2  3  4  5  17  18  19  20  21  22  23  24  25 0
 3-21G
 ****
 26  28  29  30  38  39  40  41  42  43  44  45 0
 3-21G
 ****


