%nproc=1
%NoSave
%Mem=1900MB
#P OB98/GEN NMR

erre ene a

0 1
  C     -401.278    -730.377     997.500
  O     -400.837    -731.387     996.603
  H     -400.797    -730.541     998.468
  H     -402.363    -730.436     997.634
  H     -400.994    -729.397     997.123
  P     -401.467    -731.343     995.125
  C     -399.145    -731.099     994.008
  O     -400.302    -731.911     994.180
  C     -397.880    -731.944     994.088
  O     -397.656    -732.387     995.437
  C     -397.916    -733.201     993.218
  O     -397.560    -732.907     991.882
  C     -396.837    -734.054     993.898
  O     -395.537    -733.632     993.445
  C     -397.021    -733.694     995.393
  N     -396.925    -737.369     998.971
  C     -395.950    -736.763     998.305
  N     -396.047    -735.822     997.311
  C     -397.323    -735.535     997.068
  C     -398.446    -736.085     997.678
  C     -398.216    -737.039     998.690
  N     -399.252    -737.663     999.372
  N     -399.605    -735.543     997.160
  C     -399.189    -734.646     996.293
  N     -397.823    -734.616     996.171
  O     -402.094    -730.058     994.717
  O     -402.485    -732.587     995.200
  H     -395.505    -733.812     992.482
  H     -402.077    -733.327     995.679
  H     -394.938    -737.050     998.582
  H     -399.846    -733.962     995.744
  H     -396.060    -733.600     995.908
  H     -396.932    -735.115     993.668
  H     -398.875    -733.716     993.300
  H     -397.027    -731.300     993.809
  H     -399.114    -730.316     994.770
  H     -398.989    -738.451     999.927
  H     -400.181    -737.508     999.063
  H     -399.225    -730.613     993.029
  P     -398.485    -733.354     990.649
  C     -399.851    -731.168     990.781
  O     -398.984    -731.975     989.996
  O     -399.553    -734.334     991.007
  O     -397.456    -733.921     989.577
  H     -397.933    -734.447     988.906
  H     -400.108    -730.284     990.235
  H     -399.358    -730.894     991.690
  H     -400.740    -731.717     991.009

 6  7  8  9  10  11  12  13  14  15  25  28  32  33  34  35 0
 6-311+G(2d,p)
 ****
 36  39  40 0
 6-311+G(2d,p)
 ****
 1  2  3  4  5  16  17  18  19  20  21  22  23  24 0
 3-21G
 ****
 26  27  29  30  31  37  38  41  42  43  44  45  46  47 0
 3-21G
 ****
 48 0
 3-21G
 ****


