%nproc=1
%NoSave
%Mem=1900MB
#P OB98/GEN NMR

erre ene a

0 1
  C     -171.320    -367.724     731.659
  O     -172.044    -367.205     732.761
  H     -170.785    -368.622     731.986
  H     -170.594    -366.984     731.310
  H     -171.998    -367.992     730.844
  P     -173.039    -365.982     732.459
  C     -175.305    -367.052     733.260
  O     -174.495    -366.611     732.176
  C     -176.587    -367.688     732.727
  O     -176.345    -369.017     732.223
  C     -177.662    -367.894     733.787
  O     -178.250    -366.682     734.211
  C     -178.613    -368.814     733.039
  O     -179.437    -368.079     732.124
  C     -177.613    -369.718     732.279
  N     -177.475    -371.042     732.883
  C     -178.525    -371.946     732.631
  O     -179.478    -371.602     731.924
  N     -178.468    -373.178     733.207
  C     -177.457    -373.512     733.949
  N     -177.477    -374.754     734.506
  C     -176.326    -372.598     734.223
  C     -176.404    -371.395     733.667
  O     -172.574    -365.504     731.005
  O     -173.057    -364.906     733.490
  H     -179.876    -368.737     731.565
  H     -172.554    -366.216     730.346
  H     -175.502    -372.918     734.845
  H     -175.618    -370.667     733.820
  H     -177.944    -369.861     731.234
  H     -179.281    -369.342     733.723
  H     -177.253    -368.448     734.648
  H     -176.959    -367.068     731.899
  H     -178.274    -375.343     734.314
  H     -175.528    -366.227     733.937
  H     -176.757    -375.105     735.128
  H     -174.722    -367.792     733.823
  P     -177.717    -365.932     735.525
  C     -177.439    -363.395     735.150
  O     -176.832    -364.687     735.023
  O     -177.037    -366.814     736.526
  O     -179.041    -365.206     736.090
  H     -179.440    -364.573     735.481
  H     -176.765    -362.647     734.788
  H     -177.663    -363.206     736.179
  H     -178.343    -363.368     734.578

 6  7  8  9  10  11  12  13  14  15  16  26  30  31  32  33  35 0
 6-311+G(2d,p)
 ****
 37  38 0
 6-311+G(2d,p)
 ****
 1  2  3  4  5  17  18  19  20  21  22  23  24  25 0
 3-21G
 ****
 27  28  29  34  36  39  40  41  42  43  44  45  46 0
 3-21G
 ****


