%nproc=1
%NoSave
%Mem=1900MB
#P OB98/GEN NMR

erre ene a

0 1
  C     -374.146     -22.770     221.232
  O     -375.250     -22.766     220.349
  H     -374.256     -23.605     221.931
  H     -374.110     -21.838     221.801
  H     -373.215     -22.901     220.670
  P     -375.335     -21.556     219.302
  C     -377.072     -20.145     220.631
  O     -375.743     -20.247     220.138
  C     -377.278     -18.771     221.274
  O     -376.295     -18.572     222.320
  C     -377.087     -17.605     220.315
  O     -378.219     -17.384     219.487
  C     -376.856     -16.464     221.290
  O     -378.091     -15.911     221.767
  C     -376.073     -17.149     222.428
  N     -374.652     -16.813     222.389
  C     -374.321     -15.542     222.860
  O     -375.157     -14.739     223.283
  N     -372.999     -15.203     222.786
  C     -372.002     -15.975     222.256
  O     -370.844     -15.589     222.167
  C     -372.412     -17.300     221.760
  C     -373.699     -17.653     221.843
  O     -376.658     -21.893     218.461
  O     -374.139     -21.396     218.423
  H     -376.410     -22.212     217.573
  H     -378.564     -16.646     222.205
  H     -372.739     -14.291     223.123
  H     -371.648     -17.936     221.328
  H     -374.029     -18.616     221.473
  H     -376.473     -16.843     223.405
  H     -376.300     -15.655     220.824
  H     -376.178     -17.750     219.712
  H     -378.275     -18.742     221.725
  H     -377.244     -20.919     221.388
  H     -377.774     -20.298     219.802
  P     -377.966     -17.157     217.917
  C     -378.668     -14.620     218.088
  O     -377.682     -15.586     217.745
  O     -379.445     -17.367     217.345
  O     -376.927     -18.070     217.350
  H     -380.126     -17.154     218.013
  H     -378.286     -13.638     217.901
  H     -378.915     -14.715     219.125
  H     -379.545     -14.780     217.496

 6  7  8  9  10  11  12  13  14  15  16  27  31  32  33  34  35 0
 6-311+G(2d,p)
 ****
 36  37 0
 6-311+G(2d,p)
 ****
 1  2  3  4  5  17  18  19  20  21  22  23  24  25 0
 3-21G
 ****
 26  28  29  30  38  39  40  41  42  43  44  45 0
 3-21G
 ****


