%nproc=1
%NoSave
%Mem=1900MB
#P OB98/GEN NMR

erre ene a

0 1
  C     -318.113      60.398    -159.279
  O     -318.585      60.687    -160.580
  H     -318.384      61.230    -158.615
  H     -317.026      60.298    -159.282
  H     -318.570      59.481    -158.893
  P     -318.438      59.569    -161.722
  C     -320.918      58.890    -161.928
  O     -319.620      58.511    -161.490
  C     -321.143      58.403    -163.361
  O     -320.991      56.967    -163.433
  C     -322.538      58.702    -163.900
  O     -322.665      60.069    -164.248
  C     -322.602      57.727    -165.071
  O     -321.890      58.238    -166.207
  C     -321.872      56.492    -164.481
  N     -322.802      55.474    -163.966
  C     -323.615      54.861    -164.916
  O     -323.581      55.132    -166.119
  N     -324.507      53.942    -164.430
  C     -324.720      53.658    -163.107
  O     -325.677      53.002    -162.699
  C     -323.783      54.287    -162.157
  C     -322.891      55.170    -162.628
  O     -317.077      58.975    -161.879
  O     -318.903      60.330    -163.055
  H     -318.113      60.600    -163.564
  H     -321.823      57.499    -166.845
  H     -325.135      53.521    -165.100
  H     -323.876      54.039    -161.109
  H     -322.205      55.665    -161.941
  H     -321.238      56.024    -165.244
  H     -323.626      57.534    -165.397
  H     -323.297      58.418    -163.159
  H     -320.377      58.857    -164.004
  H     -320.984      59.986    -161.901
  H     -321.668      58.464    -161.252
  P     -324.072      60.826    -164.149
  C     -323.891      61.170    -161.612
  O     -324.653      60.599    -162.670
  O     -325.033      60.519    -165.249
  O     -323.682      62.382    -164.150
  H     -324.193      62.840    -164.851
  H     -324.366      60.960    -160.677
  H     -323.828      62.229    -161.749
  H     -322.907      60.750    -161.615

 6  7  8  9  10  11  12  13  14  15  16  27  31  32  33  34  35 0
 6-311+G(2d,p)
 ****
 36  37 0
 6-311+G(2d,p)
 ****
 1  2  3  4  5  17  18  19  20  21  22  23  24  25 0
 3-21G
 ****
 26  28  29  30  38  39  40  41  42  43  44  45 0
 3-21G
 ****


