%nproc=1
%NoSave
%Mem=1900MB
#P OB98/GEN NMR

erre ene a

0 1
  C     -113.842      36.024      68.923
  O     -112.516      36.307      68.523
  P     -112.103      37.783      68.053
  C     -113.015      37.234      65.702
  O     -113.071      38.122      66.815
  C     -113.982      37.674      64.604
  O     -115.330      37.741      65.113
  C     -113.686      39.054      64.033
  O     -112.593      38.997      63.135
  C     -115.021      39.397      63.386
  O     -115.138      38.799      62.084
  C     -116.029      38.762      64.369
  N     -116.642      39.748      65.248
  C     -117.924      40.179      64.885
  O     -118.456      39.756      63.858
  N     -118.551      41.120      65.668
  C     -117.941      41.601      66.707
  N     -118.607      42.536      67.435
  C     -116.579      41.195      67.107
  C     -115.994      40.277      66.339
  O     -110.647      37.989      67.802
  O     -112.683      38.712      69.223
  H     -116.050      38.982      61.781
  H     -112.134      38.645      70.042
  H     -116.107      41.634      67.973
  H     -114.993      39.926      66.558
  H     -116.829      38.249      63.819
  H     -115.151      40.476      63.257
  H     -113.482      39.757      64.848
  H     -113.956      36.920      63.807
  H     -119.529      42.808      67.110
  H     -113.292      36.232      66.047
  H     -118.214      43.001      68.238
  H     -111.989      37.195      65.323
  P     -111.785      40.331      62.776
  C     -112.878      40.495      60.462
  O     -112.642      41.147      61.695
  O     -110.347      40.138      62.433
  O     -111.935      41.224      64.098
  H     -111.070      41.623      64.314
  H     -113.720      40.985      59.962
  H     -113.117      39.441      60.614
  H     -111.992      40.582      59.828
  H     -113.919      34.993      69.199
  H     -114.510      36.227      68.112
  H     -114.100      36.638      69.761

 3  4  5  6  7  8  9  10  11  12  13  23  27  28  29  30  32 0
 6-311+G(2d,p)
 ****
 34  35 0
 6-311+G(2d,p)
 ****
 1  2  14  15  16  17  18  19  20  21  22  24  25  26 0
 3-21G
 ****
 31  33  36  37  38  39  40  41  42  43  44  45  46 0
 3-21G
 ****


