%nproc=1
%NoSave
%Mem=1900MB
#P OB98/GEN NMR

erre ene a

0 1
  C      222.104    -459.007    -986.465
  O      222.158    -458.264    -987.692
  P      221.490    -456.805    -987.716
  C      223.892    -455.863    -988.087
  O      222.641    -455.728    -987.413
  C      224.535    -454.489    -988.287
  O      223.769    -453.670    -989.195
  C      224.681    -453.682    -986.991
  O      225.832    -454.043    -986.260
  C      224.841    -452.271    -987.549
  O      226.203    -452.077    -987.978
  C      223.890    -452.287    -988.750
  N      221.092    -448.068    -988.560
  C      222.414    -448.247    -988.932
  N      223.078    -447.137    -989.316
  N      223.021    -449.404    -988.929
  C      222.227    -450.430    -988.540
  C      220.906    -450.372    -988.137
  C      220.249    -449.084    -988.137
  O      219.086    -448.862    -987.792
  N      220.436    -451.621    -987.806
  C      221.459    -452.417    -988.019
  N      222.576    -451.744    -988.445
  O      220.627    -456.792    -986.366
  O      220.651    -456.536    -988.922
  H      226.354    -452.706    -988.708
  H      219.871    -456.178    -986.471
  H      220.675    -447.162    -988.559
  H      221.440    -453.504    -987.879
  H      224.288    -451.710    -989.604
  H      224.632    -451.507    -986.795
  H      222.657    -446.215    -989.398
  H      223.750    -453.746    -986.392
  H      224.032    -447.252    -989.627
  H      225.536    -454.645    -988.720
  H      223.756    -456.351    -989.051
  H      224.537    -456.527    -987.508
  P      225.768    -455.386    -985.380
  C      227.257    -456.641    -987.112
  O      226.032    -456.598    -986.401
  O      224.214    -455.509    -985.021
  O      226.624    -455.367    -984.158
  H      224.102    -455.933    -984.153
  H      227.321    -457.608    -987.616
  H      228.107    -456.540    -986.425
  H      227.283    -455.837    -987.855
  H      222.586    -459.953    -986.599
  H      221.083    -459.163    -986.187
  H      222.603    -458.459    -985.694

 3  4  5  6  7  8  9  10  11  12  23  26  30  31 0
 6-311+G(2d,p)
 ****
 33  35  36  37  38 0
 6-311+G(2d,p)
 ****
 1  2  13  14  15  16  17  18  19  20  21  22  24  25 0
 3-21G
 ****
 27  28  29  32  34  39  40  41  42  43  44  45  46  47  48  49 0
 3-21G
 ****


