%nproc=1
%NoSave
%Mem=1900MB
#P OB98/GEN NMR

erre ene a

0 1
  C     1374.347    -894.220     644.169
  O     1374.494    -894.430     642.769
  P     1375.896    -894.020     642.050
  C     1376.820    -896.410     642.188
  O     1376.490    -895.310     641.337
  C     1377.774    -897.340     641.479
  O     1377.125    -898.040     640.365
  C     1378.985    -896.670     640.881
  O     1379.926    -896.290     641.849
  C     1379.494    -897.770     639.906
  O     1380.245    -898.760     640.635
  C     1378.160    -898.400     639.425
  N     1377.837    -897.960     638.072
  C     1377.130    -898.850     637.266
  O     1376.842    -900.000     637.691
  N     1376.676    -898.430     636.033
  C     1377.041    -897.290     635.598
  N     1376.575    -896.910     634.353
  C     1377.942    -896.350     636.313
  C     1378.274    -896.750     637.556
  O     1376.831    -893.270     642.897
  O     1375.375    -893.110     640.803
  H     1375.880    -892.290     640.813
  H     1379.666    -899.020     641.393
  H     1378.247    -895.440     635.865
  H     1378.873    -896.140     638.197
  H     1378.247    -899.500     639.448
  H     1380.131    -897.380     639.114
  H     1378.684    -895.800     640.275
  H     1378.092    -898.140     642.202
  H     1375.939    -897.550     633.885
  H     1375.917    -896.950     642.438
  H     1376.539    -895.920     634.073
  H     1377.255    -896.050     643.099
  P     1380.855    -894.990     641.469
  C     1379.470    -893.510     643.100
  O     1380.788    -893.980     642.704
  O     1380.033    -894.270     640.318
  O     1382.217    -895.370     641.044
  H     1380.655    -893.900     639.650
  H     1379.561    -893.100     644.138
  H     1378.737    -894.300     643.083
  H     1379.188    -892.700     642.444
  H     1373.374    -894.541     644.478
  H     1374.465    -893.179     644.388
  H     1375.091    -894.782     644.694

 3  4  5  6  7  8  9  10  11  12  13  24  27  28  29  30  32 0
 6-311+G(2d,p)
 ****
 34  35 0
 6-311+G(2d,p)
 ****
 1  2  14  15  16  17  18  19  20  21  22  23  25  26 0
 3-21G
 ****
 31  33  36  37  38  39  40  41  42  43  44  45  46 0
 3-21G
 ****


