%nproc=1
%NoSave
%Mem=1900MB
#P OB98/GEN NMR

erre ene a

0 1
  C      480.624     579.664     487.574
  O      481.748     579.262     486.819
  H      480.295     580.643     487.216
  H      480.880     579.742     488.633
  H      479.803     578.948     487.441
  P      482.409     577.851     487.212
  C      481.473     576.304     485.374
  O      482.580     577.089     485.811
  C      481.941     574.904     484.969
  O      480.779     574.119     484.609
  C      482.889     574.901     483.774
  O      483.891     573.899     483.967
  C      481.996     574.512     482.605
  O      482.725     573.906     481.545
  C      480.984     573.593     483.292
  N      478.555     571.383     479.382
  C      479.752     571.134     479.954
  N      480.318     571.769     481.009
  C      479.490     572.709     481.495
  C      478.251     573.078     481.016
  C      477.780     572.372     479.890
  N      476.580     572.631     479.281
  N      477.730     574.122     481.758
  C      478.638     574.369     482.686
  N      479.727     573.548     482.551
  O      481.701     577.083     488.279
  O      483.910     578.283     487.559
  H      483.138     573.078     481.883
  H      484.264     578.914     486.904
  H      480.334     570.337     479.509
  H      478.558     575.130     483.450
  H      481.349     572.563     483.372
  H      481.498     575.407     482.207
  H      483.371     575.872     483.612
  H      482.389     574.416     485.844
  H      480.981     576.785     484.525
  H      476.309     572.068     478.491
  H      475.969     573.348     479.664
  H      480.758     576.244     486.205
  P      485.386     574.370     484.295
  C      485.219     574.894     486.820
  O      485.714     574.003     485.827
  O      485.747     575.758     483.883
  O      486.270     573.291     483.501
  H      487.058     573.741     483.126
  H      485.502     574.541     487.789
  H      484.152     574.942     486.756
  H      485.630     575.869     486.661

 6  7  8  9  10  11  12  13  14  15  25  28  32  33  34  35 0
 6-311+G(2d,p)
 ****
 36  39  40 0
 6-311+G(2d,p)
 ****
 1  2  3  4  5  16  17  18  19  20  21  22  23  24 0
 3-21G
 ****
 26  27  29  30  31  37  38  41  42  43  44  45  46  47 0
 3-21G
 ****
 48 0
 3-21G
 ****


