%nproc=1
%NoSave
%Mem=1900MB
#P OB98/GEN NMR

erre ene a

0 1
  C      702.184    -899.120     314.161
  O      701.237    -898.160     313.749
  H      702.752    -899.440     313.288
  H      701.661    -900.000     314.566
  H      702.864    -898.710     314.915
  P      700.368    -897.410     314.873
  C      698.732    -895.400     314.794
  O      699.906    -896.000     314.246
  C      698.301    -894.210     313.933
  O      699.203    -893.100     314.097
  C      698.321    -894.520     312.435
  O      697.194    -895.310     312.056
  C      698.324    -893.120     311.848
  O      697.008    -892.550     311.837
  C      699.247    -892.370     312.849
  N      700.627    -892.220     312.370
  C      700.856    -891.200     311.462
  O      699.969    -890.450     311.053
  N      702.148    -891.070     311.033
  C      703.176    -891.930     311.327
  O      704.306    -891.810     310.836
  C      702.872    -893.010     312.265
  C      701.642    -893.110     312.724
  O      700.977    -897.330     316.230
  O      698.999    -898.240     314.899
  H      696.444    -893.190     311.349
  H      698.988    -898.810     315.690
  H      702.346    -890.330     310.369
  H      703.662    -893.700     312.518
  H      701.384    -893.910     313.430
  H      698.855    -891.370     313.060
  H      698.702    -893.100     310.829
  H      699.251    -895.030     312.151
  H      697.305    -893.890     314.241
  H      698.981    -895.030     315.809
  H      697.935    -896.150     314.864
  P      697.135    -895.960     310.605
  C      695.575    -897.590     309.378
  O      696.076    -897.160     310.634
  O      698.459    -896.290     309.985
  O      696.382    -894.830     309.716
  H      696.953    -894.550     308.995
  H      694.881    -898.391     309.526
  H      696.386    -897.929     308.768
  H      695.081    -896.774     308.893

 6  7  8  9  10  11  12  13  14  15  16  26  31  32  33  34  35 0
 6-311+G(2d,p)
 ****
 36  37 0
 6-311+G(2d,p)
 ****
 1  2  3  4  5  17  18  19  20  21  22  23  24  25 0
 3-21G
 ****
 27  28  29  30  38  39  40  41  42  43  44  45 0
 3-21G
 ****


