%nproc=1
%NoSave
%Mem=1900MB
#P OB98/GEN NMR

erre ene a

0 1
  C      168.745     733.295     294.188
  O      168.913     733.500     292.795
  P      168.910     735.013     292.260
  C      166.380     735.192     292.944
  O      167.384     735.370     291.957
  C      165.014     735.629     292.401
  O      165.071     737.018     292.003
  C      164.558     734.865     291.166
  O      164.064     733.576     291.488
  C      163.514     735.824     290.598
  O      162.269     735.683     291.309
  C      164.144     737.198     290.911
  N      164.799     737.803     289.754
  C      164.144     738.876     289.164
  O      163.068     739.315     289.571
  N      164.757     739.420     288.063
  C      165.904     738.966     287.480
  O      166.386     739.472     286.468
  C      166.536     737.814     288.126
  C      165.963     737.291     289.215
  O      169.580     734.812     290.822
  O      169.637     735.954     293.162
  H      169.419     733.916     290.467
  H      161.952     734.776     291.136
  H      164.312     740.218     287.631
  H      167.442     737.420     287.682
  H      166.414     736.432     289.700
  H      163.376     737.892     291.273
  H      163.309     735.647     289.541
  H      165.385     734.771     290.457
  H      164.282     735.531     293.207
  H      166.632     735.795     293.824
  H      166.359     734.136     293.239
  P      164.877     732.321     290.895
  C      164.420     733.032     288.417
  O      164.279     732.058     289.429
  O      164.296     731.128     291.776
  O      166.361     732.487     290.964
  H      163.338     731.184     291.913
  H      164.290     732.551     287.443
  H      165.417     733.498     288.450
  H      163.656     733.802     288.536
  H      168.767     732.246     294.399
  H      167.805     733.701     294.497
  H      169.536     733.783     294.718

 3  4  5  6  7  8  9  10  11  12  13  24  28  29  30  31  32 0
 6-311+G(2d,p)
 ****
 33  34 0
 6-311+G(2d,p)
 ****
 1  2  14  15  16  17  18  19  20  21  22  23  25  26  27 0
 3-21G
 ****
 35  36  37  38  39  40  41  42  43  44  45 0
 3-21G
 ****


