%nproc=1
%NoSave
%Mem=1900MB
#P OB98/GEN NMR

erre ene a

0 1
  C      131.677     -92.579     745.510
  O      132.329     -93.681     744.915
  H      130.708     -92.438     745.025
  H      132.271     -91.670     745.374
  H      131.509     -92.755     746.580
  P      133.704     -94.202     745.549
  C      136.001     -93.092     745.970
  O      134.833     -93.135     745.149
  C      137.113     -92.340     745.237
  O      136.636     -91.052     744.791
  C      138.327     -92.053     746.114
  O      139.124     -93.209     746.283
  C      138.992     -90.933     745.324
  O      139.758     -91.465     744.228
  C      137.768     -90.146     744.808
  N      137.477     -88.955     745.606
  C      138.216     -87.813     745.304
  O      139.089     -87.788     744.432
  N      137.933     -86.701     746.051
  C      137.088     -86.658     747.125
  O      136.936     -85.655     747.819
  C      136.352     -87.894     747.412
  C      136.580     -88.973     746.659
  O      134.051     -95.625     745.260
  O      133.516     -93.949     747.118
  H      140.407     -92.083     744.629
  H      133.343     -94.804     747.561
  H      138.463     -85.870     745.855
  H      135.668     -87.894     748.252
  H      136.054     -89.896     746.859
  H      137.929     -89.832     743.764
  H      139.666     -90.340     745.937
  H      138.007     -91.650     747.091
  H      137.401     -92.920     744.354
  H      136.318     -94.118     746.173
  H      135.746     -92.603     746.919
  P      140.379     -93.175     747.281
  C      141.954     -91.222     747.836
  O      141.356     -91.993     746.805
  O      141.048     -94.488     747.505
  O      139.758     -92.615     748.649
  H      139.877     -93.283     749.355
  H      142.579     -90.470     747.402
  H      142.544     -91.859     748.461
  H      141.190     -90.756     748.422

 6  7  8  9  10  11  12  13  14  15  16  26  31  32  33  34  35 0
 6-311+G(2d,p)
 ****
 36  37 0
 6-311+G(2d,p)
 ****
 1  2  3  4  5  17  18  19  20  21  22  23  24  25 0
 3-21G
 ****
 27  28  29  30  38  39  40  41  42  43  44  45 0
 3-21G
 ****


