%nproc=1
%NoSave
%Mem=1900MB
#P OB98/GEN NMR

erre ene a

0 1
  C       97.562     254.319    -295.273
  O       97.976     255.559    -295.856
  P       97.027     256.847    -295.726
  C       98.281     258.220    -293.928
  O       97.136     257.435    -294.241
  C       97.856     259.496    -293.186
  O       97.053     259.183    -292.019
  C       99.037     260.283    -292.646
  O       99.863     260.923    -293.595
  C       98.385     261.161    -291.588
  O       97.798     262.332    -292.166
  C       97.288     260.219    -291.041
  N       97.636     259.650    -289.737
  C       97.152     260.325    -288.621
  O       96.505     261.368    -288.694
  N       97.470     259.778    -287.409
  C       98.237     258.666    -287.204
  O       98.508     258.234    -286.094
  C       98.741     258.009    -288.418
  C       98.425     258.521    -289.609
  O       95.641     256.682    -296.252
  O       97.819     257.949    -296.589
  H       97.235     262.037    -292.903
  H       97.159     258.456    -297.102
  H       97.120     260.252    -286.588
  H       99.357     257.129    -288.294
  H       98.788     258.052    -290.520
  H       96.341     260.759    -290.923
  H       99.111     261.500    -290.843
  H       99.695     259.584    -292.110
  H       97.244     260.099    -293.857
  H       98.814     258.478    -294.844
  H       98.970     257.622    -293.324
  P      101.386     261.345    -293.303
  C      102.355     259.519    -294.865
  O      102.318     260.068    -293.571
  O      101.652     262.143    -292.066
  O      101.713     262.256    -294.584
  H      102.338     262.957    -294.308
  H      103.025     258.651    -294.864
  H      102.732     260.248    -295.585
  H      101.358     259.182    -295.168
  H       98.308     253.573    -295.453
  H       96.636     254.010    -295.711
  H       97.432     254.446    -294.219

 3  4  5  6  7  8  9  10  11  12  13  23  28  29  30  31  32 0
 6-311+G(2d,p)
 ****
 33  34 0
 6-311+G(2d,p)
 ****
 1  2  14  15  16  17  18  19  20  21  22  24  25  26  27 0
 3-21G
 ****
 35  36  37  38  39  40  41  42  43  44  45 0
 3-21G
 ****


