%nproc=1
%NoSave
%Mem=1900MB
#P OB98/GEN NMR

erre ene a

0 1
  C       10.665    -642.903    -232.846
  O       10.116    -644.146    -233.302
  P       10.799    -645.506    -232.799
  C       10.000    -647.721    -231.686
  O        9.633    -646.512    -232.347
  C        8.988    -648.049    -230.582
  O        8.989    -647.043    -229.532
  C        7.540    -648.118    -231.084
  O        7.254    -649.394    -231.656
  C        6.759    -647.954    -229.786
  O        6.738    -649.203    -229.070
  C        7.625    -646.923    -229.026
  N        6.160    -642.722    -226.616
  C        6.581    -643.938    -226.115
  N        6.614    -644.053    -224.763
  N        6.915    -644.952    -226.853
  C        6.850    -644.699    -228.191
  C        6.447    -643.534    -228.808
  C        6.051    -642.421    -227.976
  O        5.659    -641.333    -228.363
  N        6.496    -643.656    -230.171
  C        6.948    -644.873    -230.374
  N        7.165    -645.560    -229.208
  O       11.470    -645.079    -231.408
  O       11.806    -646.072    -233.751
  H        7.615    -649.293    -228.641
  H       12.246    -645.648    -231.221
  H        5.894    -641.977    -225.997
  H        7.130    -645.318    -231.356
  H        7.669    -647.121    -227.955
  H        5.730    -647.656    -229.958
  H        6.416    -643.291    -224.128
  H        7.314    -647.301    -231.770
  H        6.957    -644.923    -224.380
  H        9.251    -649.014    -230.138
  H       10.999    -647.622    -231.247
  H       10.070    -648.527    -232.419
  P        7.095    -649.483    -233.253
  C        8.289    -651.228    -234.754
  O        7.434    -650.993    -233.653
  O        8.357    -648.640    -233.778
  O        5.812    -648.934    -233.781
  H        8.146    -648.196    -234.620
  H        8.544    -652.301    -234.776
  H        9.218    -650.662    -234.658
  H        7.784    -650.973    -235.690
  H       10.106    -642.092    -233.264
  H       11.687    -642.829    -233.155
  H       10.612    -642.860    -231.778

 3  4  5  6  7  8  9  10  11  12  23  26  30  31 0
 6-311+G(2d,p)
 ****
 33  35  36  37  38 0
 6-311+G(2d,p)
 ****
 1  2  13  14  15  16  17  18  19  20  21  22  24  25 0
 3-21G
 ****
 27  28  29  32  34  39  40  41  42  43  44  45  46  47  48  49 0
 3-21G
 ****


