%nproc=1
%NoSave
%Mem=1900MB
#P OB98/GEN NMR

erre ene a

0 1
  C       66.396    -317.874    -109.791
  O       65.851    -319.193    -109.729
  P       64.699    -319.566    -110.786
  C       62.784    -319.784    -109.018
  O       63.320    -319.076    -110.125
  C       61.365    -319.293    -108.697
  O       60.714    -320.237    -107.789
  C       61.305    -317.906    -108.044
  O       60.137    -317.256    -108.568
  C       61.112    -318.226    -106.573
  O       60.545    -317.137    -105.860
  C       60.226    -319.475    -106.669
  N       60.225    -320.264    -105.437
  C       59.473    -319.776    -104.375
  O       58.893    -318.693    -104.408
  N       59.455    -320.555    -103.248
  C       60.162    -321.711    -103.062
  O       60.103    -322.370    -102.032
  C       61.026    -322.117    -104.183
  C       61.022    -321.383    -105.299
  O       64.658    -321.158    -110.662
  O       64.978    -319.041    -112.159
  H       64.803    -321.481    -109.755
  H       60.207    -317.459    -105.001
  H       58.887    -320.237    -102.477
  H       61.646    -322.996    -104.047
  H       61.665    -321.643    -106.130
  H       59.189    -319.189    -106.892
  H       62.078    -318.473    -106.119
  H       62.189    -317.304    -108.253
  H       60.790    -319.294    -109.628
  H       63.416    -319.632    -108.140
  H       62.793    -320.858    -109.236
  P       60.264    -316.490    -109.981
  C       59.843    -314.069    -109.066
  O       60.732    -314.992    -109.662
  O       58.711    -316.311    -110.341
  O       61.023    -317.225    -111.034
  H       58.181    -315.977    -109.597
  H       60.413    -313.202    -108.724
  H       59.329    -314.513    -108.211
  H       59.107    -313.733    -109.808
  H       67.147    -317.763    -109.037
  H       65.618    -317.158    -109.627
  H       66.832    -317.713    -110.755

 3  4  5  6  7  8  9  10  11  12  13  24  28  29  30  31  32 0
 6-311+G(2d,p)
 ****
 33  34 0
 6-311+G(2d,p)
 ****
 1  2  14  15  16  17  18  19  20  21  22  23  25  26  27 0
 3-21G
 ****
 35  36  37  38  39  40  41  42  43  44  45 0
 3-21G
 ****


