%nproc=1
%NoSave
%Mem=1900MB
#P OB98/GEN NMR

erre ene a

0 1
  C     -221.880    -148.996    -146.918
  O     -220.768    -148.297    -147.447
  P     -220.972    -146.742    -147.791
  C     -221.287    -146.680    -150.373
  O     -221.910    -146.700    -149.091
  C     -221.843    -145.536    -151.214
  O     -223.087    -145.929    -151.820
  C     -222.154    -144.278    -150.422
  O     -220.967    -143.565    -150.134
  C     -223.099    -143.550    -151.368
  O     -222.370    -142.755    -152.318
  C     -223.833    -144.717    -152.073
  N     -225.218    -144.844    -151.647
  C     -226.075    -143.812    -152.046
  O     -225.638    -142.863    -152.698
  N     -227.392    -143.864    -151.660
  C     -227.810    -144.858    -150.939
  N     -229.126    -144.861    -150.590
  C     -226.936    -145.955    -150.481
  C     -225.660    -145.883    -150.863
  O     -219.539    -146.302    -148.347
  O     -221.418    -145.900    -146.640
  H     -221.729    -143.365    -152.736
  H     -219.391    -145.347    -148.208
  H     -227.334    -146.759    -149.880
  H     -224.948    -146.644    -150.570
  H     -223.824    -144.569    -153.160
  H     -223.769    -142.870    -150.833
  H     -222.681    -144.529    -149.493
  H     -221.124    -145.319    -152.016
  H     -229.701    -144.093    -150.913
  H     -221.488    -147.627    -150.884
  H     -229.553    -145.600    -150.048
  H     -220.206    -146.577    -150.240
  P     -220.896    -142.764    -148.750
  C     -221.808    -140.422    -149.269
  O     -222.116    -141.726    -148.813
  O     -219.630    -141.807    -148.978
  O     -220.775    -143.570    -147.501
  H     -219.422    -141.330    -148.153
  H     -222.739    -139.872    -149.411
  H     -221.274    -140.466    -150.222
  H     -221.200    -139.902    -148.523
  H     -221.607    -150.015    -146.736
  H     -222.688    -148.963    -147.618
  H     -222.185    -148.539    -146.000

 3  4  5  6  7  8  9  10  11  12  13  21  23  27  28  29  30  32 0
 6-311+G(2d,p)
 ****
 34  35 0
 6-311+G(2d,p)
 ****
 1  2  14  15  16  17  18  19  20  22  24  25  26 0
 3-21G
 ****
 31  33  36  37  38  39  40  41  42  43  44  45  46 0
 3-21G
 ****


