%nproc=1
%NoSave
%Mem=1900MB
#P OB98/GEN NMR

erre ene a

0 1
  C      -73.371     -56.755    -185.603
  O      -74.681     -57.251    -185.783
  H      -73.128     -56.090    -186.439
  H      -72.657     -57.583    -185.596
  H      -73.296     -56.189    -184.670
  P      -75.309     -58.083    -184.561
  C      -74.898     -60.426    -183.517
  O      -74.533     -59.488    -184.520
  C      -74.581     -61.845    -183.979
  O      -75.456     -62.224    -185.070
  C      -73.157     -62.035    -184.488
  O      -72.240     -62.243    -183.422
  C      -73.324     -63.296    -185.320
  O      -73.388     -64.448    -184.453
  C      -74.686     -63.056    -185.987
  N      -74.455     -63.745    -191.004
  C      -74.513     -64.676    -189.983
  N      -74.499     -65.974    -190.347
  N      -74.575     -64.359    -188.714
  C      -74.572     -63.022    -188.495
  C      -74.520     -62.005    -189.423
  C      -74.459     -62.367    -190.821
  O      -74.432     -61.584    -191.769
  N      -74.547     -60.776    -188.821
  C      -74.594     -61.044    -187.531
  N      -74.604     -62.396    -187.280
  O      -76.767     -58.486    -185.097
  O      -75.391     -57.355    -183.262
  H      -72.474     -64.648    -184.186
  H      -77.394     -58.468    -184.347
  H      -74.398     -64.041    -191.965
  H      -74.624     -60.306    -186.743
  H      -75.246     -63.986    -186.135
  H      -72.493     -63.459    -186.009
  H      -74.401     -66.284    -191.304
  H      -72.847     -61.208    -185.138
  H      -74.572     -66.675    -189.621
  H      -74.789     -62.526    -183.142
  H      -75.975     -60.341    -183.320
  H      -74.350     -60.198    -182.597
  P      -70.914     -61.332    -183.396
  C      -68.669     -61.372    -184.709
  O      -69.873     -62.061    -184.376
  O      -70.312     -61.618    -181.940
  O      -71.139     -59.879    -183.639
  H      -69.735     -60.878    -181.665
  H      -68.080     -61.979    -185.365
  H      -68.115     -61.171    -183.816
  H      -68.909     -60.450    -185.196

 6  7  8  9  10  11  12  13  14  15  26  29  33  34 0
 6-311+G(2d,p)
 ****
 36  38  39  40  41 0
 6-311+G(2d,p)
 ****
 1  2  3  4  5  16  17  18  19  20  21  22  23  24  25 0
 3-21G
 ****
 27  28  30  31  32  35  37  42  43  44  45  46  47 0
 3-21G
 ****
 48  49 0
 3-21G
 ****


