%nproc=1
%NoSave
%Mem=1900MB
#P OB98/GEN NMR

erre ene a

0 1
  C     -305.150    -154.717    -362.077
  O     -304.976    -154.039    -363.316
  P     -306.202    -153.180    -363.892
  C     -307.939    -153.459    -365.796
  O     -306.844    -154.027    -365.098
  C     -308.063    -154.043    -367.201
  O     -307.040    -153.453    -368.053
  C     -307.890    -155.564    -367.278
  O     -308.733    -156.038    -368.337
  C     -306.438    -155.728    -367.689
  O     -306.181    -156.998    -368.267
  C     -306.292    -154.540    -368.636
  N     -302.245    -154.762    -371.764
  C     -303.504    -155.229    -371.892
  N     -304.528    -155.130    -371.014
  C     -304.144    -154.468    -369.911
  C     -302.887    -153.966    -369.620
  C     -301.901    -154.126    -370.614
  N     -300.619    -153.645    -370.494
  N     -302.868    -153.375    -368.376
  C     -304.097    -153.518    -367.916
  N     -304.908    -154.153    -368.817
  O     -305.464    -151.971    -364.637
  O     -307.165    -152.682    -362.870
  H     -305.275    -156.993    -368.638
  H     -305.628    -151.137    -364.158
  H     -303.721    -155.745    -372.819
  H     -304.446    -153.192    -366.945
  H     -306.716    -154.747    -369.630
  H     -305.790    -155.615    -366.811
  H     -308.126    -156.086    -366.344
  H     -309.032    -153.745    -367.618
  H     -307.778    -152.379    -365.879
  H     -300.018    -153.674    -371.298
  H     -300.414    -153.008    -369.730
  H     -308.862    -153.628    -365.233
  P     -309.149    -157.586    -368.300
  C     -308.089    -159.757    -369.248
  O     -307.891    -158.414    -368.835
  O     -310.219    -157.707    -369.487
  O     -309.722    -158.032    -366.994
  H     -310.844    -158.431    -369.301
  H     -307.401    -159.974    -370.066
  H     -309.116    -159.928    -369.588
  H     -307.869    -160.424    -368.411
  H     -304.251    -155.242    -361.828
  H     -305.958    -155.414    -362.162
  H     -305.372    -154.006    -361.309

 3  4  5  6  7  8  9  10  11  12  22  25  29  30  31  32 0
 6-311+G(2d,p)
 ****
 33  36  37 0
 6-311+G(2d,p)
 ****
 1  2  13  14  15  16  17  18  19  20  21  23  24  26 0
 3-21G
 ****
 27  28  34  35  38  39  40  41  42  43  44  45  46  47  48 0
 3-21G
 ****


