%nproc=1
%NoSave
%Mem=1900MB
#P OB98/GEN NMR

erre ene a

0 1
  C       29.018      93.003      49.710
  O       29.551      94.010      50.542
  P       30.792      93.718      51.513
  C       29.352      91.982      52.761
  O       30.585      92.231      52.094
  C       29.458      90.714      53.617
  O       29.726      89.577      52.738
  C       30.597      90.786      54.657
  O       30.194      90.494      55.996
  C       31.646      89.852      54.072
  O       32.580      89.370      55.019
  C       30.773      88.809      53.365
  N       31.527      88.005      52.405
  C       32.457      87.107      52.922
  O       32.674      86.944      54.120
  N       33.203      86.421      52.002
  C       33.196      86.623      50.653
  O       33.962      86.042      49.896
  C       32.219      87.612      50.169
  C       31.424      88.232      51.046
  O       31.045      94.754      52.557
  O       32.010      93.508      50.494
  H       33.283      88.900      54.534
  H       31.892      92.780      49.859
  H       33.882      85.768      52.362
  H       32.197      87.799      49.105
  H       30.696      88.967      50.718
  H       30.297      88.136      54.081
  H       32.215      90.418      53.322
  H       31.008      91.800      54.718
  H       28.489      90.557      54.104
  H       28.568      91.845      52.012
  H       29.076      92.850      53.370
  P       30.847      91.131      57.312
  C       32.541      89.182      57.626
  O       32.340      90.569      57.453
  O       30.015      91.030      58.548
  O       31.073      92.666      56.909
  H       31.022      93.224      57.710
  H       33.468      89.030      58.188
  H       32.645      88.708      56.644
  H       31.713      88.719      58.172
  H       28.201      93.402      49.146
  H       28.672      92.189      50.312
  H       29.777      92.655      49.041

 3  4  5  6  7  8  9  10  11  12  13  23  28  29  30  31  32 0
 6-311+G(2d,p)
 ****
 33  34 0
 6-311+G(2d,p)
 ****
 1  2  14  15  16  17  18  19  20  21  22  24  25  26  27 0
 3-21G
 ****
 35  36  37  38  39  40  41  42  43  44  45 0
 3-21G
 ****


