%nproc=1
%NoSave
%Mem=1900MB
#P OB98/GEN NMR

erre ene a

0 1
  C      -56.600    -183.879       1.383
  O      -57.100    -184.209       2.685
  P      -58.685    -184.356       2.869
  C      -58.583    -185.322       5.284
  O      -59.028    -184.275       4.434
  C      -59.178    -185.164       6.686
  O      -58.506    -184.133       7.439
  C      -60.647    -184.771       6.687
  O      -61.489    -185.899       6.499
  C      -60.806    -184.225       8.097
  O      -60.950    -185.314       9.030
  C      -59.468    -183.510       8.321
  N      -56.974    -179.059       8.773
  C      -56.675    -180.308       9.195
  N      -57.398    -181.439       9.053
  C      -58.534    -181.193       8.383
  C      -58.974    -179.976       7.891
  C      -58.138    -178.868       8.109
  N      -58.447    -177.600       7.674
  N      -60.196    -180.112       7.268
  C      -60.482    -181.394       7.366
  N      -59.512    -182.087       8.039
  O      -58.948    -185.896       2.516
  O      -59.483    -183.450       1.992
  H      -61.788    -185.764       8.815
  H      -59.814    -185.991       2.077
  H      -55.728    -180.413       9.717
  H      -61.371    -181.864       6.967
  H      -59.100    -183.627       9.347
  H      -61.692    -183.594       8.207
  H      -60.843    -183.980       5.952
  H      -59.051    -186.117       7.217
  H      -57.491    -185.324       5.337
  H      -57.785    -176.861       7.842
  H      -59.304    -177.457       7.159
  H      -58.870    -186.283       4.844
  P      -62.337    -185.963       5.138
  C      -62.360    -188.554       4.960
  O      -63.101    -187.369       5.170
  O      -61.207    -186.158       4.021
  O      -63.179    -184.761       4.880
  H      -61.495    -185.753       3.181
  H      -62.951    -189.405       5.310
  H      -61.417    -188.533       5.511
  H      -62.159    -188.680       3.893
  H      -55.532    -183.816       1.416
  H      -57.003    -182.937       1.074
  H      -56.891    -184.637       0.686

 3  4  5  6  7  8  9  10  11  12  22  25  29  30  31  32 0
 6-311+G(2d,p)
 ****
 33  36  37 0
 6-311+G(2d,p)
 ****
 1  2  13  14  15  16  17  18  19  20  21  23  24  26 0
 3-21G
 ****
 27  28  34  35  38  39  40  41  42  43  44  45  46  47  48 0
 3-21G
 ****


