%nproc=1
%NoSave
%Mem=1900MB
#P OB98/GEN NMR

erre ene a

0 1
  C     2179.419    -895.840    -290.044
  O     2180.259    -894.735    -290.325
  H     2178.949    -895.683    -289.053
  H     2180.018    -896.756    -289.999
  H     2178.628    -895.939    -290.796
  P     2180.727    -894.555    -291.848
  C     2180.097    -892.047    -292.107
  O     2179.815    -893.386    -292.477
  C     2179.066    -891.536    -291.098
  O     2179.111    -892.384    -289.915
  C     2179.281    -890.084    -290.644
  O     2177.998    -889.456    -290.472
  C     2179.921    -890.249    -289.268
  O     2179.751    -889.099    -288.448
  C     2179.204    -891.503    -288.773
  N     2180.107    -891.004    -283.861
  C     2179.204    -890.344    -284.685
  N     2178.479    -889.339    -284.120
  N     2179.038    -890.626    -285.944
  C     2179.837    -891.633    -286.371
  C     2180.761    -892.373    -285.670
  C     2180.946    -892.020    -284.270
  O     2181.736    -892.561    -283.493
  N     2181.386    -893.284    -286.482
  C     2180.859    -893.104    -287.688
  N     2179.901    -892.106    -287.664
  O     2180.175    -895.888    -292.554
  O     2182.196    -894.384    -292.047
  H     2180.147    -889.290    -287.563
  H     2180.889    -896.562    -292.572
  H     2180.203    -890.718    -282.899
  H     2181.127    -893.623    -288.590
  H     2178.198    -891.277    -288.433
  H     2180.999    -890.428    -289.389
  H     2178.515    -889.090    -283.153
  H     2179.887    -889.495    -291.339
  H     2177.796    -888.878    -284.706
  H     2178.062    -891.657    -291.541
  H     2180.056    -891.412    -293.000
  H     2181.111    -891.994    -291.675
  P     2177.146    -889.111    -291.782
  C     2174.702    -889.851    -291.232
  O     2175.936    -890.155    -291.885
  O     2178.123    -889.549    -292.987
  O     2176.765    -887.673    -291.900
  H     2178.007    -888.964    -293.745
  H     2174.005    -890.646    -291.398
  H     2174.305    -888.940    -291.627
  H     2174.872    -889.740    -290.181

 6  7  8  9  10  11  12  13  14  15  26  29  33  34 0
 6-311+G(2d,p)
 ****
 36  38  39  40  41 0
 6-311+G(2d,p)
 ****
 1  2  3  4  5  16  17  18  19  20  21  22  23  24  25 0
 3-21G
 ****
 27  28  30  31  32  35  37  42  43  44  45  46  47 0
 3-21G
 ****
 48  49 0
 3-21G
 ****


