%nproc=1
%NoSave
%Mem=1900MB
#P OB98/GEN NMR

erre ene a

0 1
  C     -297.166      32.714     -97.678
  O     -296.134      32.063     -98.390
  H     -297.042      32.500     -96.611
  H     -298.146      32.351     -97.994
  H     -297.102      33.796     -97.823
  P     -296.157      32.128     -99.994
  C     -297.263      29.781    -100.062
  O     -297.372      31.155    -100.408
  C     -297.916      28.913    -101.136
  O     -299.355      29.025    -101.088
  C     -297.544      29.279    -102.571
  O     -296.233      28.882    -102.935
  C     -298.616      28.508    -103.324
  O     -298.282      27.110    -103.345
  C     -299.857      28.761    -102.430
  N     -300.674      29.881    -102.896
  C     -301.768      29.559    -103.710
  O     -302.007      28.390    -104.004
  N     -302.550      30.582    -104.205
  C     -302.251      31.813    -103.927
  N     -303.028      32.786    -104.483
  C     -301.120      32.197    -103.062
  C     -300.379      31.194    -102.588
  O     -294.860      31.861    -100.687
  O     -296.773      33.569    -100.326
  H     -298.071      26.855    -102.429
  H     -296.799      33.663    -101.308
  H     -300.912      33.237    -102.868
  H     -299.519      31.394    -101.960
  H     -300.483      27.869    -102.367
  H     -298.734      28.831    -104.365
  H     -297.691      30.349    -102.752
  H     -297.670      27.866    -100.910
  H     -303.768      32.487    -105.104
  H     -297.744      29.634     -99.092
  H     -302.706      33.747    -104.544
  H     -296.208      29.497     -99.982
  P     -295.335      29.924    -103.767
  C     -295.859      28.620    -105.958
  O     -295.850      29.866    -105.285
  O     -293.906      29.200    -103.821
  O     -295.256      31.307    -103.197
  H     -293.332      29.504    -103.092
  H     -296.228      28.755    -106.953
  H     -296.492      27.936    -105.433
  H     -294.864      28.228    -105.996

 6  7  8  9  10  11  12  13  14  15  16  26  30  31  32  33  35 0
 6-311+G(2d,p)
 ****
 37  38 0
 6-311+G(2d,p)
 ****
 1  2  3  4  5  17  18  19  20  21  22  23  24  25 0
 3-21G
 ****
 27  28  29  34  36  39  40  41  42  43  44  45  46 0
 3-21G
 ****


