%nproc=1
%NoSave
%Mem=1900MB
#P OB98/GEN NMR

erre ene a

0 1
  C     -242.923     443.738     345.483
  O     -243.095     444.706     344.468
  H     -243.062     444.222     346.455
  H     -241.915     443.318     345.440
  H     -243.663     442.943     345.372
  P     -242.819     444.222     342.961
  C     -240.621     443.395     341.822
  O     -241.216     444.121     342.887
  C     -239.148     443.148     342.118
  O     -238.999     442.172     343.174
  C     -238.350     442.591     340.941
  O     -238.009     443.574     339.979
  C     -237.125     442.073     341.677
  O     -236.290     443.180     342.061
  C     -237.783     441.416     342.910
  N     -238.094     439.998     342.704
  C     -237.007     439.119     342.646
  O     -235.856     439.535     342.760
  N     -237.249     437.786     342.421
  C     -238.467     437.360     342.290
  N     -238.641     436.029     342.063
  C     -239.638     438.247     342.354
  C     -239.388     439.536     342.562
  O     -243.130     445.527     342.089
  O     -243.546     442.994     342.524
  H     -236.838     443.757     342.625
  H     -242.849     445.381     341.152
  H     -240.638     437.848     342.224
  H     -240.201     440.253     342.621
  H     -237.143     441.507     343.793
  H     -236.511     441.404     341.077
  H     -238.865     441.748     340.471
  H     -238.716     444.091     342.481
  H     -237.813     435.456     341.963
  H     -240.729     443.985     340.904
  H     -239.531     435.629     341.799
  H     -241.133     442.438     341.688
  P     -237.948     443.110     338.441
  C     -237.055     440.882     337.437
  O     -236.846     441.950     338.349
  O     -237.244     444.347     337.716
  O     -239.277     442.778     337.834
  H     -237.597     444.466     336.811
  H     -236.235     440.197     337.497
  H     -237.124     441.271     336.442
  H     -237.964     440.374     337.685

 6  7  8  9  10  11  12  13  14  15  16  26  30  31  32  33  35 0
 6-311+G(2d,p)
 ****
 37  38 0
 6-311+G(2d,p)
 ****
 1  2  3  4  5  17  18  19  20  21  22  23  24  25 0
 3-21G
 ****
 27  28  29  34  36  39  40  41  42  43  44  45  46 0
 3-21G
 ****


