%nproc=1
%NoSave
%Mem=1900MB
#P OB98/GEN NMR

erre ene a

0 1
  C      622.788     895.178    -254.547
  O      622.978     896.135    -253.526
  H      621.984     894.503    -254.252
  H      623.707     894.597    -254.685
  H      622.514     895.653    -255.495
  P      623.843     897.444    -253.854
  C      621.925     899.105    -253.333
  O      622.804     898.588    -254.321
  C      620.836     899.975    -253.968
  O      621.440     901.189    -254.513
  C      620.179     899.249    -255.144
  O      618.824     899.654    -255.346
  C      621.016     899.701    -256.341
  O      620.332     899.561    -257.580
  C      621.328     901.137    -255.955
  N      623.496     903.277    -260.033
  C      622.207     902.768    -259.881
  N      621.408     902.831    -260.978
  N      621.754     902.244    -258.772
  C      622.698     902.210    -257.799
  C      624.000     902.635    -257.817
  C      624.478     903.254    -259.040
  O      625.606     903.698    -259.242
  N      624.651     902.393    -256.642
  C      623.749     901.796    -255.894
  N      622.533     901.667    -256.542
  O      624.595     897.086    -255.214
  O      624.806     897.865    -252.782
  H      619.567     900.171    -257.564
  H      625.412     897.608    -255.296
  H      623.781     903.686    -260.906
  H      623.904     901.437    -254.871
  H      620.509     901.798    -256.239
  H      621.909     899.070    -256.385
  H      621.764     903.056    -261.885
  H      620.205     898.155    -255.020
  H      620.589     902.215    -260.976
  H      620.111     900.292    -253.201
  H      622.522     899.707    -252.649
  H      621.466     898.286    -252.760
  P      617.683     898.882    -254.545
  C      617.127     900.948    -253.009
  O      617.546     899.604    -253.104
  O      618.353     897.456    -254.200
  O      616.407     898.741    -255.282
  H      617.974     896.761    -254.762
  H      617.099     901.241    -251.980
  H      616.150     901.048    -253.435
  H      617.813     901.574    -253.540

 6  7  8  9  10  11  12  13  14  15  26  29  33  34 0
 6-311+G(2d,p)
 ****
 36  38  39  40  41 0
 6-311+G(2d,p)
 ****
 1  2  3  4  5  16  17  18  19  20  21  22  23  24  25 0
 3-21G
 ****
 27  28  30  31  32  35  37  42  43  44  45  46  47 0
 3-21G
 ****
 48  49 0
 3-21G
 ****


