%nproc=1
%NoSave
%Mem=1900MB
#P OB98/GEN NMR

erre ene a

0 1
  C      378.460     350.763     505.589
  O      378.161     350.525     504.229
  P      378.802     349.268     503.474
  C      379.606     350.754     501.536
  O      379.984     349.805     502.535
  C      380.594     351.922     501.526
  O      381.032     352.231     502.866
  C      381.862     351.656     500.725
  O      381.621     351.744     499.336
  C      382.792     352.729     501.286
  O      382.545     353.991     500.651
  C      382.362     352.780     502.760
  N      386.495     353.169     505.736
  C      385.921     354.037     504.864
  N      384.844     353.848     504.082
  C      384.362     352.600     504.239
  C      384.865     351.599     505.057
  C      385.972     351.926     505.854
  N      386.522     351.081     506.787
  N      384.106     350.443     504.925
  C      383.186     350.745     504.021
  N      383.259     352.053     503.638
  O      377.825     348.362     502.806
  O      379.592     348.491     504.630
  H      383.120     354.654     501.084
  H      379.222     347.589     504.729
  H      386.394     355.019     504.803
  H      382.440     350.057     503.646
  H      382.311     353.812     503.135
  H      383.851     352.492     501.141
  H      382.264     350.660     500.983
  H      380.065     352.811     501.123
  H      378.600     351.120     501.768
  H      387.222     351.468     507.401
  H      385.972     350.281     507.102
  H      379.586     350.264     500.557
  P      381.687     350.432     498.426
  C      382.896     351.652     496.527
  O      382.953     350.595     497.465
  O      380.413     350.050     497.744
  O      382.163     349.292     499.449
  H      381.766     348.430     499.189
  H      382.256     351.361     495.688
  H      383.906     351.844     496.148
  H      382.509     352.561     496.982
  H      377.945     351.641     505.919
  H      379.514     350.905     505.703
  H      378.148     349.924     506.175

 3  4  5  6  7  8  9  10  11  12  22  25  29  30  31  32 0
 6-311+G(2d,p)
 ****
 33  36  37 0
 6-311+G(2d,p)
 ****
 1  2  13  14  15  16  17  18  19  20  21  23  24  26 0
 3-21G
 ****
 27  28  34  35  38  39  40  41  42  43  44  45  46  47  48 0
 3-21G
 ****


