%nproc=1
%NoSave
%Mem=1900MB
#P OB98/GEN NMR

erre ene a

0 1
  C      -48.432       5.263     -34.528
  O      -48.004       5.434     -33.171
  P      -49.027       4.929     -32.037
  C      -47.928       2.686     -31.323
  O      -48.201       4.040     -30.983
  C      -47.033       2.007     -30.284
  O      -45.717       2.612     -30.320
  C      -47.534       2.108     -28.839
  O      -47.227       0.882     -28.159
  C      -46.657       3.192     -28.239
  O      -46.582       3.099     -26.819
  C      -45.344       2.917     -28.966
  N      -40.775       4.477     -27.462
  C      -41.327       3.213     -27.438
  N      -40.560       2.230     -26.917
  N      -42.524       2.935     -27.884
  C      -43.164       4.009     -28.406
  C      -42.719       5.309     -28.497
  C      -41.410       5.608     -27.960
  O      -40.886       6.719     -27.904
  N      -43.657       6.120     -29.090
  C      -44.667       5.314     -29.348
  N      -44.419       4.026     -28.945
  O      -49.937       3.866     -32.814
  O      -49.852       6.020     -31.442
  H      -45.955       3.785     -26.520
  H      -50.878       4.116     -32.740
  H      -39.857       4.640     -27.086
  H      -45.603       5.610     -29.798
  H      -44.833       2.040     -28.550
  H      -47.066       4.176     -28.498
  H      -39.607       2.362     -26.616
  H      -48.602       2.330     -28.744
  H      -40.930       1.288     -26.933
  H      -46.913       0.955     -30.570
  H      -47.435       2.650     -32.299
  H      -48.879       2.149     -31.410
  P      -48.404      -0.205     -28.083
  C      -48.031      -1.405     -30.360
  O      -47.903      -1.453     -28.953
  O      -49.562       0.440     -28.978
  O      -48.862      -0.515     -26.697
  H      -50.436       0.119     -28.685
  H      -48.293      -0.405     -30.718
  H      -48.810      -2.106     -30.670
  H      -47.082      -1.704     -30.813
  H      -47.676       5.632     -35.190
  H      -49.341       5.805     -34.686
  H      -48.599       4.224     -34.721

 3  4  5  6  7  8  9  10  11  12  23  26  30  31  33  0
 6-311+G(2d,p)
 ****
 35  36  37  38 0
 6-311+G(2d,p)
 ****
 1  2  13  14  15  16  17  18  19  20  21  22  24  25  27  28  29 0
 3-21G
 ****
 32  34  39  40  41  42  43  44  45  46  47  48  49 0
 3-21G
 ****


