%nproc=1
%NoSave
%Mem=1900MB
#P OB98/GEN NMR

erre ene a

0 1
  C      225.745     613.127    -335.273
  O      226.684     612.928    -336.337
  P      226.180     612.308    -337.732
  C      225.298     614.518    -338.763
  O      224.978     613.208    -338.298
  C      224.878     614.669    -340.231
  O      223.428     614.683    -340.364
  C      225.335     615.992    -340.842
  O      226.719     616.132    -341.057
  C      224.419     616.117    -342.047
  O      224.915     615.368    -343.164
  C      223.111     615.498    -341.512
  N      222.102     616.513    -341.187
  C      220.799     616.242    -341.576
  O      220.482     615.230    -342.206
  N      219.865     617.187    -341.251
  C      220.108     618.376    -340.618
  O      219.239     619.202    -340.375
  C      221.512     618.621    -340.251
  C      222.433     617.701    -340.549
  O      225.941     610.836    -337.738
  O      227.381     612.680    -338.733
  H      224.957     614.434    -342.895
  H      227.532     611.913    -339.319
  H      218.912     617.003    -341.525
  H      221.746     619.556    -339.759
  H      223.477     617.864    -340.287
  H      222.667     614.826    -342.265
  H      224.333     617.163    -342.375
  H      225.061     616.797    -340.146
  H      225.253     613.815    -340.795
  H      226.366     614.696    -338.655
  H      224.793     615.249    -338.125
  P      227.488     617.546    -340.948
  C      228.436     617.560    -338.530
  O      227.441     618.021    -339.417
  O      227.192     618.574    -341.993
  O      229.017     617.087    -341.095
  H      229.511     617.801    -341.555
  H      228.241     617.964    -337.538
  H      229.427     617.876    -338.855
  H      228.406     616.464    -338.467
  H      226.249     613.544    -334.426
  H      225.309     612.188    -335.002
  H      224.976     613.797    -335.597

 3  4  5  6  7  8  9  10  11  12  13  23  28  29  30  31  32 0
 6-311+G(2d,p)
 ****
 33  34 0
 6-311+G(2d,p)
 ****
 1  2  14  15  16  17  18  19  20  21  22  24  25  26  27 0
 3-21G
 ****
 35  36  37  38  39  40  41  42  43  44  45 0
 3-21G
 ****


