%nproc=1
%NoSave
%Mem=1900MB
#P OB98/GEN NMR

erre ene a

0 1
  C      628.108     965.884     284.513
  O      628.454     966.111     285.879
  P      629.435     967.342     286.194
  C      627.886     968.169     288.142
  O      628.519     968.451     286.903
  C      627.626     969.463     288.913
  O      628.874     970.156     289.168
  C      626.755     970.461     288.162
  O      625.392     970.070     288.176
  C      627.056     971.740     288.938
  O      626.289     971.781     290.153
  C      628.551     971.569     289.274
  N      629.427     972.373     288.429
  C      629.221     973.754     288.477
  O      628.349     974.272     289.171
  N      630.045     974.501     287.684
  C      631.011     974.021     286.847
  O      631.726     974.750     286.171
  C      631.149     972.562     286.806
  C      630.364     971.808     287.584
  O      629.696     967.920     284.726
  O      630.663     966.937     286.946
  H      628.918     967.844     284.147
  H      626.540     972.604     290.611
  H      629.922     975.504     287.718
  H      631.888     972.147     286.126
  H      630.447     970.730     287.561
  H      628.746     971.845     290.319
  H      626.820     972.643     288.372
  H      627.108     970.565     287.132
  H      627.172     969.206     289.866
  H      628.526     967.515     288.743
  H      626.949     967.632     287.946
  P      624.960     968.917     287.138
  C      624.425     967.053     288.882
  O      625.261     967.523     287.859
  O      626.117     969.046     286.037
  O      623.579     969.082     286.603
  H      627.004     969.143     286.427
  H      624.572     965.977     289.002
  H      623.368     967.237     288.649
  H      624.686     967.548     289.832
  H      627.454     965.040     284.446
  H      628.996     965.693     283.947
  H      627.615     966.749     284.122

 3  4  5  6  7  8  9  10  11  12  13  24  28  29  30  31  32 0
 6-311+G(2d,p)
 ****
 33  34 0
 6-311+G(2d,p)
 ****
 1  2  14  15  16  17  18  19  20  21  22  23  25  26  27 0
 3-21G
 ****
 35  36  37  38  39  40  41  42  43  44  45 0
 3-21G
 ****


