%nproc=1
%NoSave
%Mem=1900MB
#P OB98/GEN NMR

erre ene a

0 1
  C      250.264    -123.454      38.513
  O      251.292    -123.950      37.677
  P      251.897    -125.396      38.029
  C      252.239    -126.331      35.625
  O      252.845    -125.789      36.797
  C      253.137    -126.107      34.412
  O      253.057    -124.735      33.987
  C      254.611    -126.371      34.675
  O      254.875    -127.758      34.685
  C      255.260    -125.624      33.517
  O      255.335    -126.453      32.345
  C      254.293    -124.440      33.293
  N      254.855    -123.169      33.725
  C      254.792    -122.129      32.787
  O      254.308    -122.326      31.675
  N      255.322    -120.906      33.128
  C      255.867    -120.744      34.295
  N      256.369    -119.510      34.578
  C      255.964    -121.818      35.301
  C      255.447    -122.998      34.952
  O      250.638    -126.368      37.858
  O      252.517    -125.500      39.384
  H      255.783    -125.909      31.664
  H      250.736    -127.164      38.416
  H      256.426    -121.631      36.260
  H      255.481    -123.843      35.630
  H      254.034    -124.353      32.230
  H      256.283    -125.317      33.753
  H      254.918    -125.916      35.626
  H      252.773    -126.742      33.592
  H      256.294    -118.797      33.866
  H      251.280    -125.833      35.452
  H      256.790    -119.277      35.468
  H      252.056    -127.398      35.783
  P      255.305    -128.425      36.075
  C      253.841    -130.483      35.630
  O      255.157    -130.005      35.834
  O      254.041    -128.108      37.010
  O      256.587    -127.964      36.685
  H      254.229    -128.384      37.926
  H      253.894    -131.533      35.324
  H      253.341    -129.913      34.839
  H      253.266    -130.414      36.557
  H      249.956    -122.490      38.166
  H      250.628    -123.373      39.516
  H      249.430    -124.124      38.489

 3  4  5  6  7  8  9  10  11  12  13  21  23  27  28  29  30  32 0
 6-311+G(2d,p)
 ****
 34  35 0
 6-311+G(2d,p)
 ****
 1  2  14  15  16  17  18  19  20  22  24  25  26 0
 3-21G
 ****
 31  33  36  37  38  39  40  41  42  43  44  45  46 0
 3-21G
 ****


