%nproc=1
%NoSave
%Mem=1900MB
#P OB98/GEN NMR

erre ene a

0 1
  C     -780.877    -855.814     686.111
  O     -781.175    -854.439     686.202
  H     -781.568    -856.362     686.753
  H     -779.860    -856.008     686.452
  H     -781.002    -856.166     685.082
  P     -780.290    -853.405     685.344
  C     -782.107    -853.723     683.517
  O     -781.324    -852.794     684.267
  C     -783.017    -852.978     682.553
  O     -784.000    -852.182     683.261
  C     -782.319    -851.972     681.637
  O     -781.567    -852.583     680.600
  C     -783.511    -851.203     681.118
  O     -784.202    -851.990     680.120
  C     -784.359    -851.066     682.410
  N     -784.129    -849.785     683.096
  C     -785.122    -848.816     682.964
  O     -786.126    -849.029     682.291
  N     -784.930    -847.590     683.577
  C     -783.830    -847.356     684.225
  N     -783.708    -846.134     684.808
  C     -782.758    -848.353     684.382
  C     -782.961    -849.534     683.803
  O     -779.013    -853.945     684.780
  O     -780.077    -852.154     686.320
  H     -784.779    -851.378     679.634
  H     -779.524    -851.484     685.841
  H     -781.852    -848.099     684.911
  H     -782.215    -850.317     683.858
  H     -785.424    -851.147     682.182
  H     -783.244    -850.253     680.652
  H     -781.689    -851.290     682.226
  H     -783.577    -853.724     681.976
  H     -784.459    -845.477     684.688
  H     -782.684    -854.337     684.215
  H     -782.846    -845.837     685.277
  H     -781.444    -854.372     682.933
  P     -780.477    -851.659     679.858
  C     -778.477    -852.381     681.384
  O     -779.049    -852.362     680.083
  O     -780.409    -850.348     680.781
  O     -780.780    -851.326     678.427
  H     -780.960    -849.628     680.411
  H     -777.534    -852.885     681.351
  H     -779.133    -852.895     682.055
  H     -778.334    -851.377     681.725

 6  7  8  9  10  11  12  13  14  15  16  26  30  31  32  33  35 0
 6-311+G(2d,p)
 ****
 37  38 0
 6-311+G(2d,p)
 ****
 1  2  3  4  5  17  18  19  20  21  22  23  24  25 0
 3-21G
 ****
 27  28  29  34  36  39  40  41  42  43  44  45  46 0
 3-21G
 ****


