%nproc=1
%NoSave
%Mem=1900MB
#P OB98/GEN NMR

erre ene a

0 1
  C      153.697    -111.718     141.822
  O      152.801    -112.210     142.795
  H      154.699    -112.093     142.048
  H      153.719    -110.625     141.852
  H      153.414    -112.058     140.822
  P      151.230    -111.962     142.597
  C      149.111    -113.292     143.239
  O      150.471    -113.015     143.536
  C      148.595    -114.459     144.090
  O      149.409    -115.637     143.803
  C      148.672    -114.214     145.612
  O      147.598    -114.956     146.209
  C      150.019    -114.836     145.933
  O      150.230    -114.992     147.313
  C      149.923    -116.103     145.072
  N      151.174    -116.826     144.882
  C      151.659    -117.566     145.957
  O      151.106    -117.659     147.053
  N      152.843    -118.224     145.740
  C      153.562    -118.225     144.578
  O      154.599    -118.860     144.432
  C      153.002    -117.420     143.484
  C      151.852    -116.772     143.681
  O      150.753    -111.918     141.183
  O      150.972    -110.570     143.347
  H      150.904    -109.851     142.689
  H      151.090    -115.443     147.455
  H      153.208    -118.769     146.505
  H      153.550    -117.387     142.552
  H      151.410    -116.178     142.888
  H      149.175    -116.781     145.491
  H      150.824    -114.184     145.580
  H      148.582    -113.158     145.882
  H      147.569    -114.696     143.779
  H      149.041    -113.551     142.175
  H      148.513    -112.397     143.425
  P      146.139    -114.343     146.469
  C      143.689    -115.156     146.266
  O      145.063    -115.524     146.297
  O      145.833    -113.131     145.649
  O      146.091    -114.007     148.034
  H      145.455    -113.285     148.193
  H      143.087    -116.033     146.148
  H      143.516    -114.492     145.445
  H      143.430    -114.666     147.182

 6  7  8  9  10  11  12  13  14  15  16  27  31  32  33  34  35 0
 6-311+G(2d,p)
 ****
 36  37 0
 6-311+G(2d,p)
 ****
 1  2  3  4  5  17  18  19  20  21  22  23  24  25 0
 3-21G
 ****
 26  28  29  30  38  39  40  41  42  43  44  45 0
 3-21G
 ****


