%nproc=1
%NoSave
%Mem=1900MB
#P OB98/GEN NMR

erre ene a

0 1
  C     -145.553     -13.982      58.012
  O     -145.755     -13.530      56.689
  P     -145.084     -14.222      55.416
  C     -143.216     -12.488      54.908
  O     -143.534     -13.796      55.370
  C     -141.707     -12.203      54.907
  O     -141.183     -12.384      56.238
  C     -140.981     -13.214      54.014
  O     -140.906     -13.007      52.618
  C     -139.642     -13.455      54.701
  O     -138.584     -12.687      54.124
  C     -139.898     -13.018      56.144
  N     -137.098     -16.744      58.137
  C     -136.693     -15.663      57.379
  N     -135.413     -15.691      56.946
  N     -137.480     -14.667      57.060
  C     -138.755     -14.830      57.485
  C     -139.270     -15.848      58.253
  C     -138.380     -16.921      58.633
  O     -138.720     -17.938      59.233
  N     -140.623     -15.721      58.430
  C     -140.937     -14.646      57.737
  N     -139.844     -14.095      57.112
  O     -145.870     -14.197      54.145
  O     -144.998     -15.760      55.898
  H     -138.803     -11.743      54.237
  H     -145.132     -16.323      55.111
  H     -136.466     -17.521      58.285
  H     -141.939     -14.248      57.626
  H     -139.158     -12.270      56.458
  H     -139.344     -14.507      54.608
  H     -134.827     -16.506      57.049
  H     -141.521     -14.164      54.112
  H     -135.134     -15.006      56.252
  H     -141.504     -11.160      54.647
  H     -143.743     -11.776      55.551
  H     -143.605     -12.355      53.896
  P     -140.863     -14.140      51.490
  C     -138.336     -13.987      51.123
  O     -139.413     -14.820      51.513
  O     -140.853     -13.326      50.112
  O     -142.007     -15.101      51.520
  H     -141.176     -13.898      49.390
  H     -137.473     -14.611      50.884
  H     -138.072     -13.319      51.950
  H     -138.599     -13.390      50.245
  H     -146.103     -13.362      58.689
  H     -144.511     -13.933      58.250
  H     -145.892     -14.993      58.099

 3  4  5  6  7  8  9  10  11  12  23  26  30  31 0
 6-311+G(2d,p)
 ****
 33  35  36  37  38 0
 6-311+G(2d,p)
 ****
 1  2  13  14  15  16  17  18  19  20  21  22  24  25 0
 3-21G
 ****
 27  28  29  32  34  39  40  41  42  43  44  45  46  47  48  49 0
 3-21G
 ****


