%nproc=1
%NoSave
%Mem=1900MB
#P OB98/GEN NMR

erre ene a

0 1
  C     -570.530    1086.222    -706.722
  O     -571.341    1086.244    -707.885
  P     -572.138    1084.899    -708.258
  C     -574.542    1085.831    -708.607
  O     -573.343    1085.358    -709.206
  C     -575.538    1086.287    -709.681
  O     -575.218    1087.619    -710.129
  C     -575.576    1085.433    -710.926
  O     -576.358    1084.271    -710.767
  C     -576.229    1086.371    -711.919
  O     -577.653    1086.399    -711.705
  C     -575.618    1087.745    -711.518
  N     -574.145    1090.040    -715.835
  C     -575.347    1089.778    -715.342
  N     -575.659    1089.140    -714.187
  C     -574.555    1088.745    -713.555
  C     -573.242    1088.926    -713.938
  C     -573.033    1089.614    -715.129
  N     -571.786    1089.922    -715.645
  N     -572.370    1088.378    -713.028
  C     -573.148    1087.897    -712.072
  N     -574.470    1088.100    -712.329
  O     -572.878    1084.538    -706.880
  O     -571.308    1083.785    -708.740
  H     -578.017    1085.602    -712.118
  H     -573.101    1083.586    -706.857
  H     -576.193    1090.100    -715.936
  H     -572.798    1087.402    -711.173
  H     -576.340    1088.565    -711.588
  H     -576.063    1086.104    -712.968
  H     -574.549    1085.179    -711.262
  H     -576.541    1086.333    -709.215
  H     -574.317    1086.683    -707.948
  H     -571.723    1090.573    -716.399
  H     -570.983    1089.796    -715.012
  H     -574.979    1085.021    -708.012
  P     -575.743    1082.891    -711.297
  C     -576.447    1081.333    -709.335
  O     -576.673    1081.724    -710.649
  O     -574.381    1082.764    -710.488
  O     -575.543    1082.854    -712.764
  H     -573.732    1082.211    -710.988
  H     -577.338    1080.796    -708.963
  H     -576.306    1082.201    -708.674
  H     -575.572    1080.670    -709.248
  H     -570.062    1087.176    -706.595
  H     -569.779    1085.467    -706.825
  H     -571.137    1086.006    -705.868

 3  4  5  6  7  8  9  10  11  12  22  25  29  30  31  32 0
 6-311+G(2d,p)
 ****
 33  36  37 0
 6-311+G(2d,p)
 ****
 1  2  13  14  15  16  17  18  19  20  21  23  24  26 0
 3-21G
 ****
 27  28  34  35  38  39  40  41  42  43  44  45  46  47  48 0
 3-21G
 ****


