%nproc=1
%NoSave
%Mem=1900MB
#P OB98/GEN NMR

erre ene a

0 1
  C       35.323     -43.486     -53.543
  O       35.727     -44.654     -52.849
  P       34.825     -45.970     -52.980
  C       34.476     -47.681     -54.907
  O       34.715     -46.332     -54.540
  C       33.635     -47.744     -56.184
  O       32.285     -47.270     -55.896
  C       34.183     -46.891     -57.337
  O       33.876     -47.571     -58.562
  C       33.349     -45.628     -57.234
  O       33.340     -44.864     -58.430
  C       31.993     -46.230     -56.851
  N       31.065     -45.242     -56.306
  C       30.040     -44.801     -57.137
  O       29.874     -45.192     -58.292
  N       29.226     -43.831     -56.616
  C       29.386     -43.208     -55.414
  O       28.692     -42.264     -55.055
  C       30.486     -43.714     -54.578
  C       31.262     -44.692     -55.053
  O       33.359     -45.449     -52.607
  O       35.252     -47.107     -52.113
  H       33.016     -45.442     -59.144
  H       33.140     -45.681     -51.685
  H       28.472     -43.508     -57.201
  H       30.629     -43.257     -53.607
  H       32.092     -45.070     -54.467
  H       31.537     -46.716     -57.723
  H       33.746     -44.994     -56.432
  H       35.257     -46.696     -57.267
  H       33.550     -48.793     -56.494
  H       33.941     -48.183     -54.100
  H       35.432     -48.198     -55.049
  P       34.825     -47.299     -59.830
  C       37.216     -48.110     -60.501
  O       36.248     -47.946     -59.488
  O       35.072     -45.722     -59.684
  O       34.210     -47.690     -61.135
  H       35.249     -45.455     -58.768
  H       37.172     -47.302     -61.236
  H       37.054     -49.065     -61.006
  H       38.209     -48.116     -60.044
  H       36.024     -42.700     -53.356
  H       34.353     -43.187     -53.204
  H       35.287     -43.689     -54.593

 3  4  5  6  7  8  9  10  11  12  13  23  28  29  30  31  32 0
 6-311+G(2d,p)
 ****
 33  34 0
 6-311+G(2d,p)
 ****
 1  2  14  15  16  17  18  19  20  21  22  24  25  26 0
 3-21G
 ****
 27  35  36  37  38  39  40  41  42  43  44  45 0
 3-21G
 ****


