%nproc=1
%NoSave
%Mem=1900MB
#P OB98/GEN NMR

erre ene a

0 1
  C     -216.411    -169.785     -94.168
  O     -216.904    -169.686     -95.490
  H     -215.600    -169.064     -94.043
  H     -216.023    -170.791     -93.981
  H     -217.206    -169.552     -93.455
  P     -218.085    -170.694     -95.893
  C     -219.056    -169.151     -97.714
  O     -218.374    -170.368     -97.440
  C     -218.753    -168.677     -99.136
  O     -217.379    -168.215     -99.184
  C     -218.912    -169.774    -100.191
  O     -219.470    -169.209    -101.376
  C     -217.486    -170.219    -100.461
  O     -217.331    -170.788    -101.758
  C     -216.710    -168.922    -100.244
  N     -211.884    -168.635    -101.873
  C     -213.043    -168.181    -102.395
  N     -214.288    -168.286    -101.884
  C     -214.260    -168.898    -100.687
  C     -213.158    -169.416    -100.031
  C     -211.919    -169.273    -100.678
  N     -210.738    -169.756    -100.166
  N     -213.539    -170.011     -98.842
  C     -214.846    -169.839     -98.778
  N     -215.329    -169.187     -99.879
  O     -219.281    -170.679     -95.003
  O     -217.307    -172.089     -95.974
  H     -217.861    -171.611    -101.799
  H     -216.454    -171.997     -96.437
  H     -212.963    -167.669    -103.352
  H     -215.485    -170.179     -97.969
  H     -216.696    -168.285    -101.136
  H     -217.191    -170.975     -99.723
  H     -219.537    -170.599     -99.845
  H     -219.387    -167.811     -99.361
  H     -218.752    -168.379     -96.999
  H     -209.892    -169.595    -100.690
  H     -210.741    -170.218     -99.268
  H     -220.128    -169.332     -97.595
  P     -220.997    -168.725    -101.346
  C     -220.213    -166.519    -102.432
  O     -221.186    -167.557    -102.432
  O     -221.568    -168.443     -99.996
  O     -221.762    -169.955    -102.038
  H     -222.621    -170.085    -101.591
  H     -220.450    -165.808    -103.196
  H     -219.246    -166.937    -102.621
  H     -220.211    -166.032    -101.479

 6  7  8  9  10  11  12  13  14  15  25  28  32  33  34  35 0
 6-311+G(2d,p)
 ****
 36  39  40 0
 6-311+G(2d,p)
 ****
 1  2  3  4  5  16  17  18  19  20  21  22  23  24 0
 3-21G
 ****
 26  27  29  30  31  37  38  41  42  43  44  45  46  47 0
 3-21G
 ****
 48 0
 3-21G
 ****


