%nproc=1
%NoSave
%Mem=1900MB
#P OB98/GEN NMR

erre ene a

0 1
  C      559.198    1498.932    -429.205
  O      559.904    1499.399    -430.333
  H      559.231    1499.701    -428.427
  H      559.670    1498.023    -428.819
  H      558.155    1498.726    -429.458
  P      559.963    1498.424    -431.615
  C      557.875    1499.574    -432.665
  O      558.453    1498.374    -432.168
  C      556.501    1499.268    -433.279
  O      556.671    1498.526    -434.500
  C      555.576    1498.460    -432.340
  O      554.251    1499.011    -432.394
  C      555.598    1497.070    -432.935
  O      554.424    1496.326    -432.628
  C      555.832    1497.355    -434.433
  N      556.468    1496.231    -435.113
  C      555.779    1494.984    -435.029
  O      554.714    1494.897    -434.413
  N      556.352    1493.882    -435.610
  C      557.508    1493.979    -436.176
  N      558.024    1492.839    -436.712
  C      558.281    1495.240    -436.243
  C      557.699    1496.316    -435.700
  O      560.186    1496.986    -430.969
  O      560.980    1498.795    -432.647
  H      554.443    1495.511    -433.157
  H      560.449    1496.318    -431.645
  H      559.266    1495.267    -436.707
  H      558.190    1497.277    -435.687
  H      554.881    1497.576    -434.929
  H      556.473    1496.518    -432.529
  H      555.916    1498.455    -431.320
  H      556.026    1500.235    -433.568
  H      557.465    1491.994    -436.653
  H      558.531    1499.991    -433.441
  H      558.946    1492.790    -437.154
  H      557.765    1500.299    -431.853
  P      554.019    1500.334    -431.512
  C      552.987    1501.652    -433.506
  O      554.014    1501.594    -432.532
  O      555.397    1500.493    -430.729
  O      552.847    1500.247    -430.621
  H      555.300    1500.155    -429.822
  H      553.111    1502.531    -434.103
  H      552.035    1501.683    -433.019
  H      553.040    1500.786    -434.132

 6  7  8  9  10  11  12  13  14  15  16  26  30  31  32  33  35 0
 6-311+G(2d,p)
 ****
 37  38 0
 6-311+G(2d,p)
 ****
 1  2  3  4  5  17  18  19  20  21  22  23  24  25 0
 3-21G
 ****
 27  28  29  34  36  39  40  41  42  43  44  45  46 0
 3-21G
 ****


