%nproc=1
%NoSave
%Mem=1900MB
#P OB98/GEN NMR

erre ene a

0 1
  C      -58.616     295.842    -229.439
  O      -59.612     296.838    -229.332
  H      -59.102     294.864    -229.486
  H      -57.964     295.867    -228.563
  H      -58.023     295.981    -230.348
  P      -59.183     298.377    -229.451
  C      -60.765     299.087    -231.360
  O      -60.469     299.178    -229.972
  C      -62.268     299.231    -231.582
  O      -62.947     298.018    -231.195
  C      -62.913     300.344    -230.763
  O      -62.628     301.614    -231.320
  C      -64.377     299.930    -230.828
  O      -64.967     300.327    -232.075
  C      -64.267     298.390    -230.733
  N      -64.512     297.876    -229.386
  C      -65.701     298.268    -228.780
  O      -66.503     299.037    -229.312
  N      -65.930     297.760    -227.530
  C      -65.070     296.984    -226.809
  O      -65.301     296.598    -225.668
  C      -63.813     296.630    -227.485
  C      -63.596     297.083    -228.723
  O      -57.926     298.644    -230.213
  O      -59.057     298.851    -227.926
  H      -65.809     299.837    -232.154
  H      -58.121     298.860    -227.660
  H      -66.783     298.044    -227.070
  H      -63.102     296.020    -226.942
  H      -62.672     296.836    -229.233
  H      -64.982     297.915    -231.416
  H      -64.978     300.386    -230.039
  H      -62.580     300.290    -229.722
  H      -62.442     299.387    -232.654
  H      -60.434     298.110    -231.727
  H      -60.217     299.872    -231.892
  P      -62.139     302.823    -230.395
  C      -59.879     303.176    -231.543
  O      -61.155     303.738    -231.274
  O      -61.596     302.427    -229.061
  O      -63.441     303.739    -230.238
  H      -63.814     303.634    -229.339
  H      -59.304     303.861    -232.131
  H      -59.999     302.258    -232.080
  H      -59.372     302.985    -230.620

 6  7  8  9  10  11  12  13  14  15  16  26  31  32  33  34  35 0
 6-311+G(2d,p)
 ****
 36  37 0
 6-311+G(2d,p)
 ****
 1  2  3  4  5  17  18  19  20  21  22  23  24  25 0
 3-21G
 ****
 27  28  29  30  38  39  40  41  42  43  44  45 0
 3-21G
 ****


