%nproc=1
%NoSave
%Mem=1900MB
#P OB98/GEN NMR

erre ene a

0 1
  C     -311.409     149.486      78.465
  O     -311.274     150.189      77.248
  H     -310.480     148.943      78.660
  H     -312.229     148.766      78.385
  H     -311.599     150.166      79.298
  P     -312.332     151.339      76.901
  C     -313.965     150.133      75.305
  O     -313.738     150.619      76.619
  C     -315.426     149.709      75.115
  O     -315.669     148.472      75.829
  C     -316.369     150.756      75.714
  O     -317.629     150.789      75.047
  C     -316.568     150.259      77.138
  O     -317.756     150.760      77.742
  C     -316.569     148.745      76.918
  N     -317.509     147.598      81.795
  C     -318.115     148.538      80.987
  N     -319.081     149.288      81.560
  N     -317.785     148.741      79.737
  C     -316.752     147.969      79.319
  C     -316.056     147.020      80.034
  C     -316.453     146.782      81.406
  O     -315.937     145.974      82.175
  N     -315.055     146.456      79.279
  C     -315.141     147.067      78.112
  N     -316.167     147.985      78.082
  O     -311.895     151.829      75.438
  O     -312.389     152.482      77.867
  H     -317.716     151.735      77.709
  H     -312.191     152.744      75.283
  H     -317.807     147.475      82.748
  H     -314.498     146.883      77.262
  H     -317.567     148.397      76.627
  H     -315.725     150.601      77.743
  H     -319.242     149.295      82.554
  H     -315.932     151.759      75.697
  H     -319.326     150.164      81.084
  H     -315.628     149.514      74.057
  H     -313.303     149.270      75.161
  H     -313.681     150.889      74.568
  P     -317.931     152.041      74.095
  C     -318.609     153.724      75.991
  O     -317.709     153.380      74.954
  O     -319.515     151.974      73.875
  O     -317.183     152.011      72.802
  H     -319.716     151.643      72.979
  H     -318.297     154.642      76.444
  H     -318.618     152.948      76.728
  H     -319.592     153.842      75.585

 6  7  8  9  10  11  12  13  14  15  26  29  33  34 0
 6-311+G(2d,p)
 ****
 36  38  39  40  41 0
 6-311+G(2d,p)
 ****
 1  2  3  4  5  16  17  18  19  20  21  22  23  24  25 0
 3-21G
 ****
 27  28  30  31  32  35  37  42  43  44  45  46  47 0
 3-21G
 ****
 48  49 0
 3-21G
 ****


