%nproc=1
%NoSave
%Mem=1900MB
#P OB98/GEN NMR

erre ene a

0 1
  C     -178.057     -68.502     159.708
  O     -177.373     -69.596     160.280
  P     -175.801     -69.830     160.118
  C     -174.057     -71.613     160.847
  O     -175.405     -71.166     160.922
  C     -173.614     -72.394     162.094
  O     -173.807     -71.575     163.266
  C     -174.494     -73.632     162.281
  O     -174.208     -74.822     161.575
  C     -174.628     -73.799     163.790
  O     -173.723     -74.770     164.317
  C     -174.296     -72.406     164.331
  N     -175.983     -70.106     168.522
  C     -174.684     -70.393     168.151
  N     -173.743     -70.212     169.103
  N     -174.350     -70.837     166.967
  C     -175.412     -71.059     166.155
  C     -176.740     -70.799     166.407
  C     -177.090     -70.271     167.704
  O     -178.236     -70.082     168.101
  N     -177.544     -71.218     165.378
  C     -176.709     -71.769     164.521
  N     -175.410     -71.731     164.967
  O     -174.924     -68.627     160.252
  O     -175.712     -70.322     158.582
  H     -174.023     -75.649     164.025
  H     -174.871     -69.987     158.216
  H     -176.189     -69.841     169.478
  H     -176.996     -72.236     163.585
  H     -173.492     -72.463     165.076
  H     -175.636     -74.141     164.054
  H     -173.981     -70.013     170.065
  H     -175.500     -73.358     161.939
  H     -172.812     -70.571     168.926
  H     -172.543     -72.614     162.060
  H     -173.426     -70.730     160.700
  H     -173.931     -72.247     159.965
  P     -175.230     -76.013     161.267
  C     -175.408     -78.008     159.675
  O     -174.675     -76.846     160.018
  O     -176.521     -75.282     160.662
  O     -175.609     -76.839     162.453
  H     -177.303     -75.854     160.770
  H     -174.792     -78.645     159.035
  H     -176.311     -77.721     159.125
  H     -175.691     -78.571     160.569
  H     -179.096     -68.563     159.955
  H     -177.941     -68.525     158.645
  H     -177.652     -67.589     160.091

 3  4  5  6  7  8  9  10  11  12  23  26  30  31 0
 6-311+G(2d,p)
 ****
 33  35  36  37  38 0
 6-311+G(2d,p)
 ****
 1  2  13  14  15  16  17  18  19  20  21  22  24  25 0
 3-21G
 ****
 27  28  29  32  34  39  40  41  42  43  44  45  46  47  48  49 0
 3-21G
 ****


