%nproc=1
%NoSave
%Mem=1900MB
#P OB98/GEN NMR

erre ene a

0 1
  C      -84.651       2.516    -205.231
  O      -83.563       3.312    -205.655
  P      -83.799       4.566    -206.626
  C      -81.386       5.177    -205.951
  O      -82.330       5.085    -207.016
  C      -80.050       5.724    -206.455
  O      -80.252       6.929    -207.220
  C      -79.072       6.093    -205.349
  O      -78.467       4.932    -204.810
  C      -78.120       7.017    -206.096
  O      -77.132       6.270    -206.822
  C      -79.074       7.748    -207.066
  N      -79.405       9.092    -206.612
  C      -78.670      10.132    -207.194
  O      -77.782       9.886    -208.011
  N      -78.928      11.423    -206.798
  C      -79.821      11.648    -205.885
  N      -80.022      12.945    -205.527
  C      -80.594      10.578    -205.225
  C      -80.336       9.337    -205.632
  O      -84.730       5.609    -206.106
  O      -84.306       3.882    -207.983
  H      -77.626       5.667    -207.413
  H      -85.239       3.566    -207.901
  H      -81.320      10.814    -204.462
  H      -80.856       8.491    -205.198
  H      -78.621       7.826    -208.063
  H      -77.581       7.687    -205.418
  H      -79.593       6.658    -204.567
  H      -79.604       4.971    -207.119
  H      -79.450      13.646    -205.982
  H      -81.234       4.176    -205.539
  H      -80.665      13.229    -204.805
  H      -81.793       5.816    -205.161
  P      -77.737       5.001    -203.389
  C      -78.264       2.575    -202.742
  O      -77.250       3.521    -203.016
  O      -78.491       5.712    -202.314
  O      -76.363       5.760    -203.712
  H      -76.199       6.427    -203.019
  H      -77.843       1.571    -202.835
  H      -79.097       2.678    -203.442
  H      -78.626       2.715    -201.720
  H      -84.294       1.735    -204.593
  H      -85.133       2.087    -206.085
  H      -85.349       3.123    -204.694

 3  4  5  6  7  8  9  10  11  12  13  23  27  28  29  30  32 0
 6-311+G(2d,p)
 ****
 34  35 0
 6-311+G(2d,p)
 ****
 1  2  14  15  16  17  18  19  20  21  22  24  25  26 0
 3-21G
 ****
 31  33  36  37  38  39  40  41  42  43  44  45  46 0
 3-21G
 ****


