%nproc=1
%NoSave
%Mem=1900MB
#P OB98/GEN NMR

erre ene a

0 1
  C     -628.213     159.716    -377.341
  O     -628.395     160.661    -376.287
  P     -629.290     161.961    -376.541
  C     -630.782     162.215    -374.440
  O     -630.703     161.790    -375.795
  C     -631.680     161.270    -373.643
  O     -631.199     159.914    -373.690
  C     -631.722     161.611    -372.157
  O     -632.387     162.802    -371.788
  C     -632.231     160.317    -371.541
  O     -633.663     160.224    -371.613
  C     -631.574     159.256    -372.459
  N     -630.427     158.602    -371.833
  C     -630.653     157.323    -371.326
  O     -631.758     156.777    -371.346
  N     -629.576     156.711    -370.754
  C     -628.323     157.248    -370.615
  O     -627.393     156.658    -370.068
  C     -628.154     158.605    -371.142
  C     -629.190     159.215    -371.722
  O     -629.370     162.429    -377.953
  O     -628.561     163.072    -375.630
  H     -633.927     160.533    -372.500
  H     -628.551     163.907    -376.132
  H     -629.717     155.780    -370.387
  H     -627.177     159.063    -371.045
  H     -629.086     160.220    -372.126
  H     -632.302     158.477    -372.725
  H     -631.964     160.232    -370.481
  H     -630.688     161.736    -371.806
  H     -632.681     161.285    -374.082
  H     -631.177     163.238    -374.396
  H     -629.770     162.251    -374.022
  P     -631.616     164.113    -371.281
  C     -633.422     165.742    -372.179
  O     -632.074     165.356    -372.187
  O     -630.156     163.982    -370.984
  O     -632.381     164.423    -369.912
  H     -631.747     164.815    -369.279
  H     -633.557     166.583    -372.860
  H     -633.722     166.065    -371.172
  H     -634.065     164.917    -372.511
  H     -627.591     158.915    -376.999
  H     -627.747     160.198    -378.175
  H     -629.164     159.327    -377.639

 3  4  5  6  7  8  9  10  11  12  13  23  28  29  30  31  32 0
 6-311+G(2d,p)
 ****
 33  34 0
 6-311+G(2d,p)
 ****
 1  2  14  15  16  17  18  19  20  21  22  24  25  26  27 0
 3-21G
 ****
 35  36  37  38  39  40  41  42  43  44  45 0
 3-21G
 ****


