%nproc=1
%NoSave
%Mem=1900MB
#P OB98/GEN NMR

erre ene a

0 1
  C     -253.742    -109.079    -683.705
  O     -252.700    -108.164    -683.975
  H     -254.063    -108.943    -682.666
  H     -253.384    -110.105    -683.826
  H     -254.599    -108.899    -684.359
  P     -252.139    -108.053    -685.473
  C     -250.324    -109.890    -685.467
  O     -250.594    -108.496    -685.437
  C     -249.122    -110.230    -684.577
  O     -247.922    -109.703    -685.198
  C     -249.215    -109.642    -683.163
  O     -248.665    -110.573    -682.233
  C     -248.339    -108.408    -683.238
  O     -247.807    -108.044    -681.964
  C     -247.272    -108.840    -684.241
  N     -244.311    -104.794    -683.587
  C     -244.646    -105.800    -682.711
  N     -244.131    -105.715    -681.462
  N     -245.419    -106.812    -683.016
  C     -245.843    -106.784    -684.310
  C     -245.578    -105.840    -685.280
  C     -244.738    -104.721    -684.911
  O     -244.420    -103.788    -685.646
  N     -246.207    -106.155    -686.457
  C     -246.848    -107.279    -686.204
  N     -246.671    -107.692    -684.911
  O     -252.394    -106.739    -686.145
  O     -252.841    -109.258    -686.254
  H     -248.566    -108.018    -681.336
  H     -253.557    -108.931    -686.836
  H     -243.720    -104.037    -683.295
  H     -247.453    -107.827    -686.911
  H     -246.455    -109.397    -683.769
  H     -248.922    -107.561    -683.619
  H     -243.511    -104.980    -681.163
  H     -250.241    -109.403    -682.885
  H     -244.338    -106.460    -680.804
  H     -249.016    -111.319    -684.546
  H     -250.110    -110.178    -686.501
  H     -251.213    -110.435    -685.124
  P     -249.638    -111.633    -681.519
  C     -248.029    -112.198    -679.596
  O     -248.751    -112.701    -680.714
  O     -250.697    -112.226    -682.397
  O     -250.298    -110.766    -680.335
  H     -251.225    -111.062    -680.204
  H     -247.478    -112.994    -679.140
  H     -248.714    -111.786    -678.885
  H     -247.352    -111.436    -679.922

 6  7  8  9  10  11  12  13  14  15  26  29  33  34 0
 6-311+G(2d,p)
 ****
 36  38  39  40  41 0
 6-311+G(2d,p)
 ****
 1  2  3  4  5  16  17  18  19  20  21  22  23  24  25 0
 3-21G
 ****
 27  28  30  31  32  35  37  42  43  44  45  46  47 0
 3-21G
 ****
 48  49 0
 3-21G
 ****


