%nproc=1
%NoSave
%Mem=1900MB
#P OB98/GEN NMR

erre ene a

0 1
  C      -33.536      90.713      26.588
  O      -34.069      90.593      27.894
  P      -33.060      90.208      29.078
  C      -31.500      88.185      29.603
  O      -32.536      88.721      28.792
  C      -31.853      86.755      30.014
  O      -33.029      86.749      30.854
  C      -32.186      85.847      28.838
  O      -31.013      85.396      28.183
  C      -32.968      84.733      29.520
  O      -32.081      83.759      30.094
  C      -33.720      85.502      30.624
  N      -35.128      85.714      30.301
  C      -35.990      84.672      30.628
  O      -35.605      83.619      31.138
  N      -37.308      84.863      30.313
  C      -37.828      85.947      29.665
  O      -39.011      86.036      29.359
  C      -36.864      87.004      29.318
  C      -35.579      86.839      29.640
  O      -34.012      90.038      30.353
  O      -31.979      91.206      29.322
  H      -31.540      84.232      30.756
  H      -33.551      90.349      31.155
  H      -37.953      84.132      30.564
  H      -37.242      87.877      28.803
  H      -34.852      87.599      29.380
  H      -33.666      84.951      31.572
  H      -33.620      84.200      28.823
  H      -32.848      86.371      28.136
  H      -31.018      86.344      30.594
  H      -31.380      88.807      30.494
  H      -30.561      88.202      29.041
  P      -31.087      85.233      26.587
  C      -32.434      83.601      25.055
  O      -31.945      83.903      26.344
  O      -29.574      84.824      26.258
  O      -31.565      86.467      25.897
  H      -29.171      84.306      26.974
  H      -31.732      83.912      24.277
  H      -33.392      84.104      24.904
  H      -32.586      82.521      24.981
  H      -34.319      90.972      25.906
  H      -33.100      89.781      26.294
  H      -32.786      91.476      26.577

 3  4  5  6  7  8  9  10  11  12  13  23  28  29  30  31  32 0
 6-311+G(2d,p)
 ****
 33  34 0
 6-311+G(2d,p)
 ****
 1  2  14  15  16  17  18  19  20  21  22  24  25  26 0
 3-21G
 ****
 27  35  36  37  38  39  40  41  42  43  44  45 0
 3-21G
 ****


