%nproc=1
%NoSave
%Mem=1900MB
#P OB98/GEN NMR

erre ene a

0 1
  C      -48.311     195.634     658.102
  O      -47.452     195.476     659.206
  H      -47.708     195.675     657.189
  H      -48.880     196.566     658.182
  H      -48.996     194.784     658.020
  P      -48.089     195.450     660.678
  C      -47.161     193.095     661.201
  O      -48.324     193.909     661.055
  C      -47.319     192.153     662.400
  O      -46.927     192.886     663.591
  C      -48.765     191.670     662.584
  O      -48.868     190.249     662.669
  C      -49.259     192.500     663.761
  O      -50.306     191.899     664.497
  C      -47.983     192.773     664.564
  N      -48.049     193.969     665.393
  C      -48.862     193.921     666.523
  O      -49.522     192.943     666.883
  N      -48.906     195.064     667.277
  C      -48.238     196.231     667.002
  O      -48.321     197.228     667.715
  C      -47.419     196.229     665.780
  C      -47.360     195.109     665.042
  O      -49.278     196.327     660.880
  O      -46.874     195.874     661.634
  H      -51.131     192.017     663.979
  H      -47.005     196.797     661.936
  H      -49.473     195.037     668.101
  H      -46.888     197.134     665.530
  H      -46.764     195.076     664.138
  H      -47.754     191.927     665.220
  H      -49.652     193.452     663.376
  H      -49.366     191.909     661.696
  H      -46.624     191.311     662.278
  H      -46.302     193.762     661.349
  H      -47.007     192.508     660.287
  P      -48.976     189.257     661.421
  C      -46.366     188.935     661.414
  O      -47.556     189.217     660.688
  O      -50.181     189.433     660.548
  O      -49.077     187.799     662.099
  H      -49.631     187.254     661.506
  H      -45.529     188.955     660.748
  H      -46.443     187.966     661.862
  H      -46.231     189.672     662.178

 6  7  8  9  10  11  12  13  14  15  16  26  31  32  33  34  35 0
 6-311+G(2d,p)
 ****
 36  37 0
 6-311+G(2d,p)
 ****
 1  2  3  4  5  17  18  19  20  21  22  23  24  25 0
 3-21G
 ****
 27  28  29  30  38  39  40  41  42  43  44  45 0
 3-21G
 ****


