%nproc=1
%NoSave
%Mem=1900MB
#P OB98/GEN NMR

erre ene a

0 1
  C      555.575     526.381    1957.112
  O      556.193     525.970    1958.346
  P      556.753     526.960    1959.461
  C      555.862     525.786    1961.651
  O      555.780     526.861    1960.734
  C      554.927     525.997    1962.843
  O      555.446     527.136    1963.628
  C      553.491     526.366    1962.432
  O      552.494     525.707    1963.210
  C      553.496     527.877    1962.448
  O      552.201     528.467    1962.539
  C      554.453     528.177    1963.617
  N      555.848     532.489    1966.019
  C      555.052     531.438    1966.465
  N      554.531     531.560    1967.709
  N      554.772     530.396    1965.752
  C      555.259     530.426    1964.508
  C      556.069     531.398    1963.922
  C      556.412     532.532    1964.740
  O      557.126     533.467    1964.401
  N      556.385     531.072    1962.615
  C      555.790     529.935    1962.428
  N      555.090     529.479    1963.508
  O      557.148     528.329    1959.008
  O      558.091     526.208    1959.973
  H      551.858     528.246    1963.437
  H      558.711     526.913    1960.250
  H      556.060     533.253    1966.625
  H      555.821     529.362    1961.472
  H      553.938     528.170    1964.573
  H      553.943     528.231    1961.512
  H      554.631     532.403    1968.276
  H      553.272     526.019    1961.412
  H      553.766     530.912    1967.946
  H      554.962     525.097    1963.487
  H      556.892     525.727    1961.968
  H      555.636     524.844    1961.135
  P      551.643     524.383    1962.850
  C      551.792     522.853    1964.929
  O      552.312     523.146    1963.616
  O      552.012     524.071    1961.309
  O      550.160     524.525    1963.048
  H      551.185     524.113    1960.793
  H      552.499     522.174    1965.432
  H      550.831     522.372    1964.825
  H      551.715     523.776    1965.504
  H      555.292     525.516    1956.549
  H      556.268     526.965    1956.543
  H      554.706     526.967    1957.326

 3  4  5  6  7  8  9  10  11  12  23  26  30  31 0
 6-311+G(2d,p)
 ****
 33  35  36  37  38 0
 6-311+G(2d,p)
 ****
 1  2  13  14  15  16  17  18  19  20  21  22  24  25 0
 3-21G
 ****
 27  28  29  32  34  39  40  41  42  43  44  45  46  47  48  49 0
 3-21G
 ****


