%nproc=1
%NoSave
%Mem=1900MB
#P OB98/GEN NMR

erre ene a

0 1
  C      -26.001     573.029     259.185
  O      -24.984     572.877     260.153
  H      -26.907     573.389     259.679
  H      -26.218     572.066     258.715
  H      -25.700     573.755     258.425
  P      -23.534     572.439     259.620
  C      -22.554     570.968     261.519
  O      -22.608     572.256     260.921
  C      -21.243     570.780     262.274
  O      -20.133     571.007     261.359
  C      -21.057     571.735     263.467
  O      -20.350     571.031     264.494
  C      -20.131     572.801     262.902
  O      -19.431     573.512     263.918
  C      -19.245     571.938     262.003
  N      -14.687     573.752     260.884
  C      -15.097     572.932     261.915
  N      -14.146     572.522     262.783
  N      -16.331     572.534     262.078
  C      -17.168     572.989     261.117
  C      -16.895     573.810     260.052
  C      -15.527     574.263     259.897
  O      -15.107     575.009     259.017
  N      -18.025     574.070     259.318
  C      -18.981     573.401     259.940
  N      -18.510     572.733     261.035
  O      -22.985     573.786     258.951
  O      -23.524     571.295     258.660
  H      -19.060     572.855     264.546
  H      -23.189     573.798     257.998
  H      -13.727     574.039     260.813
  H      -20.020     573.378     259.639
  H      -18.501     571.370     262.575
  H      -20.703     573.525     262.309
  H      -13.167     572.751     262.691
  H      -21.988     572.145     263.869
  H      -14.417     571.885     263.518
  H      -21.179     569.735     262.602
  H      -22.628     570.207     260.731
  H      -23.402     570.855     262.201
  P      -21.086     570.821     265.905
  C      -19.318     571.395     267.725
  O      -19.980     570.384     266.982
  O      -21.910     569.466     265.675
  O      -21.978     571.949     266.306
  H      -22.703     569.462     266.247
  H      -18.616     570.944     268.395
  H      -20.037     571.954     268.286
  H      -18.801     572.050     267.055

 6  7  8  9  10  11  12  13  14  15  26  29  33  34 0
 6-311+G(2d,p)
 ****
 36  38  39  40  41 0
 6-311+G(2d,p)
 ****
 1  2  3  4  5  16  17  18  19  20  21  22  23  24  25 0
 3-21G
 ****
 27  28  30  31  32  35  37  42  43  44  45  46  47 0
 3-21G
 ****
 48  49 0
 3-21G
 ****


