%nproc=1
%NoSave
%Mem=1900MB
#P OB98/GEN NMR

erre ene a

0 1
  C       28.170     217.690      47.544
  O       29.050     216.641      47.185
  H       27.190     217.493      47.103
  H       28.548     218.644      47.161
  H       28.066     217.741      48.631
  P       30.546     216.739      47.751
  C       29.981     215.707      50.079
  O       30.680     215.577      48.850
  C       30.171     214.450      50.937
  O       29.752     214.748      52.303
  C       29.336     213.246      50.469
  O       30.038     212.049      50.844
  C       28.085     213.389      51.323
  O       27.314     212.210      51.295
  C       28.726     213.789      52.649
  N       25.531     212.798      56.515
  C       26.376     212.005      55.821
  N       27.203     212.343      54.813
  C       27.124     213.659      54.550
  C       26.317     214.594      55.180
  C       25.486     214.118      56.209
  N       24.622     214.923      56.912
  N       26.510     215.851      54.631
  C       27.416     215.676      53.689
  N       27.808     214.367      53.600
  O       30.524     218.084      48.618
  O       31.624     216.754      46.721
  H       27.779     211.478      51.750
  H       30.853     218.830      48.084
  H       26.381     210.957      56.112
  H       27.810     216.448      53.044
  H       29.220     212.938      53.134
  H       27.443     214.191      50.942
  H       29.148     213.240      49.393
  H       31.238     214.205      50.981
  H       28.917     215.851      49.860
  H       30.358     216.579      50.625
  H       24.047     214.498      57.623
  H       24.564     215.904      56.682
  P       31.011     211.345      49.771
  C       33.328     212.066      50.757
  O       32.408     211.016      50.488
  O       31.408     212.577      48.825
  O       30.405     210.239      48.975
  H       31.611     212.247      47.930
  H       34.197     211.665      51.235
  H       32.868     212.787      51.400
  H       33.611     212.536      49.839

 6  7  8  9  10  11  12  13  14  15  25  28  32  33  34  35 0
 6-311+G(2d,p)
 ****
 36  37  40 0
 6-311+G(2d,p)
 ****
 1  2  3  4  5  16  17  18  19  20  21  22  23  24 0
 3-21G
 ****
 26  27  29  30  31  38  39 41  42  43  44  45  46  47  48 0
 3-21G
 ****


