%nproc=1
%NoSave
%Mem=1900MB
#P OB98/GEN NMR

erre ene a

0 1
  C       91.028    -112.511     -53.292
  O       90.120    -112.895     -54.306
  H       90.569    -111.747     -52.660
  H       91.255    -113.386     -52.676
  H       91.959    -112.130     -53.725
  P       89.876    -111.857     -55.505
  C       89.112    -112.290     -57.951
  O       88.946    -112.613     -56.578
  C       88.153    -113.109     -58.817
  O       88.448    -114.523     -58.617
  C       86.664    -112.891     -58.493
  O       85.928    -112.904     -59.723
  C       86.301    -114.132     -57.686
  O       84.914    -114.442     -57.762
  C       87.201    -115.180     -58.326
  N       85.280    -119.682     -56.939
  C       85.063    -118.906     -58.020
  N       85.660    -117.738     -58.341
  C       86.616    -117.426     -57.444
  C       86.959    -118.130     -56.296
  C       86.223    -119.302     -56.043
  N       86.390    -120.065     -54.910
  N       87.948    -117.459     -55.605
  C       88.181    -116.367     -56.305
  N       87.398    -116.306     -57.424
  O       91.313    -111.815     -56.220
  O       89.413    -110.499     -55.097
  H       84.401    -113.654     -57.496
  H       91.869    -111.139     -55.791
  H       84.304    -119.255     -58.714
  H       88.877    -115.582     -56.035
  H       86.797    -115.576     -59.265
  H       86.561    -113.970     -56.634
  H       86.463    -111.964     -57.951
  H       88.359    -112.886     -59.870
  H       90.141    -112.514     -58.246
  H       85.750    -120.833     -54.760
  H       87.007    -119.738     -54.184
  H       88.930    -111.220     -58.098
  P       85.437    -111.491     -60.300
  C       84.348    -111.228     -62.658
  O       84.241    -111.753     -61.338
  O       86.647    -111.035     -61.241
  O       85.139    -110.476     -59.242
  H       86.730    -110.064     -61.235
  H       83.475    -111.490     -63.218
  H       85.214    -111.637     -63.136
  H       84.436    -110.163     -62.612

 6  7  8  9  10  11  12  13  14  15  25  28  32  33  34  35 0
 6-311+G(2d,p)
 ****
 36  39  40 0
 6-311+G(2d,p)
 ****
 1  2  3  4  5  16  17  18  19  20  21  22  23  24 0
 3-21G
 ****
 26  27  29  30  31  37  38  41  42  43  44  45  46  47 0
 3-21G
 ****
 48 0
 3-21G
 ****


