%nproc=1
%NoSave
%Mem=1900MB
#P OB98/GEN NMR

erre ene a

0 1
  C      -64.779    -233.011     259.290
  O      -66.181    -232.995     259.147
  H      -64.334    -233.256     258.321
  H      -64.476    -233.776     260.008
  H      -64.411    -232.032     259.607
  P      -67.099    -232.705     260.432
  C      -69.377    -231.527     260.534
  O      -68.586    -232.488     259.850
  C      -70.762    -231.399     259.897
  O      -70.626    -230.916     258.532
  C      -71.540    -232.724     259.841
  O      -72.879    -232.516     260.297
  C      -71.555    -233.068     258.360
  O      -72.640    -233.915     257.994
  C      -71.560    -231.668     257.738
  N      -71.199    -231.693     256.327
  C      -72.224    -232.013     255.431
  O      -73.360    -232.249     255.850
  N      -71.931    -232.113     254.098
  C      -70.709    -231.956     253.693
  N      -70.479    -232.098     252.362
  C      -69.589    -231.644     254.608
  C      -69.903    -231.523     255.898
  O      -66.603    -231.612     261.317
  O      -67.216    -234.114     261.180
  H      -72.469    -234.268     257.094
  H      -67.448    -233.957     262.125
  H      -68.586    -231.527     254.222
  H      -69.147    -231.298     256.643
  H      -72.547    -231.198     257.839
  H      -70.621    -233.586     258.101
  H      -71.082    -233.514     260.431
  H      -71.326    -230.630     260.440
  H      -71.275    -232.317     251.773
  H      -68.854    -230.562     260.510
  H      -69.570    -232.020     251.936
  H      -69.491    -231.848     261.574
  P      -73.141    -232.764     261.862
  C      -74.929    -231.950     263.558
  O      -74.621    -232.246     262.205
  O      -72.184    -231.694     262.569
  O      -72.832    -234.154     262.304
  H      -71.445    -232.152     263.011
  H      -75.944    -231.619     263.629
  H      -74.277    -231.179     263.912
  H      -74.798    -232.829     264.154

 6  7  8  9  10  11  12  13  14  15  16  26  30  31  32  33  35 0
 6-311+G(2d,p)
 ****
 37  38 0
 6-311+G(2d,p)
 ****
 1  2  3  4  5  17  18  19  20  21  22  23  24  25 0
 3-21G
 ****
 27  28  29  34  36  39  40  41  42  43  44  45  46 0
 3-21G
 ****


