%nproc=1
%NoSave
%Mem=1900MB
#P OB98/GEN NMR

erre ene a

0 1
  C     -943.240    -571.703    -589.154
  O     -943.103    -570.414    -589.753
  P     -942.870    -570.336    -591.327
  C     -943.766    -567.845    -591.445
  O     -942.702    -568.766    -591.677
  C     -943.395    -566.469    -591.973
  O     -942.195    -565.984    -591.258
  C     -943.041    -566.416    -593.479
  O     -943.522    -565.141    -593.982
  C     -941.523    -566.463    -593.492
  O     -940.972    -565.932    -594.676
  C     -941.215    -565.615    -592.210
  N     -939.866    -565.861    -591.700
  C     -938.893    -564.891    -591.923
  O     -939.102    -563.853    -592.561
  N     -937.648    -565.163    -591.416
  C     -937.272    -566.329    -590.771
  O     -936.134    -566.510    -590.351
  C     -938.327    -567.324    -590.608
  C     -939.560    -567.048    -591.056
  O     -944.317    -570.697    -591.889
  O     -941.758    -571.200    -591.829
  H     -945.036    -570.356    -591.322
  H     -941.385    -566.365    -595.432
  H     -936.941    -564.462    -591.533
  H     -938.071    -568.257    -590.126
  H     -940.357    -567.790    -590.949
  H     -941.339    -564.549    -592.430
  H     -941.204    -567.494    -593.359
  H     -943.518    -567.253    -594.026
  H     -944.215    -565.767    -591.729
  H     -943.959    -567.797    -590.372
  H     -944.685    -568.221    -591.930
  P     -944.400    -565.151    -595.340
  C     -946.020    -563.268    -594.519
  O     -945.052    -563.716    -595.464
  O     -945.637    -566.073    -594.880
  O     -943.695    -565.695    -596.534
  H     -945.998    -565.810    -594.018
  H     -946.096    -562.150    -594.587
  H     -945.723    -563.531    -593.494
  H     -947.000    -563.695    -594.753
  H     -943.390    -571.593    -588.100
  H     -942.353    -572.274    -589.330
  H     -944.080    -572.208    -589.583

 3  4  5  6  7  8  9  10  11  12  13  24  28  29  30  31  32 0
 6-311+G(2d,p)
 ****
 33  34 0
 6-311+G(2d,p)
 ****
 1  2  14  15  16  17  18  19  20  21  22  23  25  26  27 0
 3-21G
 ****
 35  36  37  38  39  40  41  42  43  44  45 0
 3-21G
 ****


