%nproc=1
%NoSave
%Mem=1900MB
#P OB98/GEN NMR

erre ene a

0 1
  C     -109.966     -81.725      50.501
  O     -109.657     -81.533      49.136
  H     -110.816     -82.408      50.573
  H     -110.240     -80.777      50.973
  H     -109.116     -82.171      51.023
  P     -108.513     -80.472      48.756
  C     -108.263     -77.931      49.197
  O     -109.133     -79.052      49.188
  C     -108.950     -76.735      49.849
  O     -109.298     -77.020      51.220
  C     -108.101     -75.469      49.921
  O     -107.962     -74.811      48.674
  C     -108.916     -74.661      50.918
  O     -110.080     -74.124      50.264
  C     -109.312     -75.755      51.939
  N     -108.413     -75.812      53.091
  C     -108.960     -75.465      54.332
  O     -110.140     -75.132      54.424
  N     -108.146     -75.467      55.439
  C     -106.891     -75.769      55.314
  N     -106.118     -75.709      56.434
  C     -106.277     -76.157      54.030
  C     -107.083     -76.153      52.970
  O     -107.985     -80.541      47.359
  O     -107.388     -80.684      49.873
  H     -109.774     -73.407      49.681
  H     -106.650     -80.058      49.675
  H     -105.224     -76.392      53.980
  H     -106.701     -76.410      51.989
  H     -110.336     -75.601      52.298
  H     -108.365     -73.819      51.346
  H     -107.121     -75.681      50.362
  H     -109.890     -76.559      49.310
  H     -106.563     -75.398      57.286
  H     -107.984     -77.708      48.163
  H     -105.106     -75.655      56.373
  H     -107.358     -78.162      49.767
  P     -107.140     -73.431      48.640
  C     -107.579     -71.001      49.471
  O     -108.068     -72.325      49.341
  O     -107.179     -73.032      47.093
  O     -105.748     -73.492      49.183
  H     -106.381     -73.350      46.627
  H     -108.315     -70.395      49.956
  H     -107.371     -70.601      48.501
  H     -106.682     -71.008      50.054

 6  7  8  9  10  11  12  13  14  15  16  26  30  31  32  33  35 0
 6-311+G(2d,p)
 ****
 37  38 0
 6-311+G(2d,p)
 ****
 1  2  3  4  5  17  18  19  20  21  22  23  24  25 0
 3-21G
 ****
 27  28  29  34  36  39  40  41  42  43  44  45  46 0
 3-21G
 ****


