%nproc=1
%NoSave
%Mem=1900MB
#P OB98/GEN NMR

erre ene a

0 1
  C      100.986    -198.270    -212.994
  O      102.249    -198.904    -212.984
  H      100.690    -198.068    -211.963
  H      100.235    -198.921    -213.452
  H      101.041    -197.322    -213.537
  P      102.890    -199.374    -214.376
  C      104.328    -197.236    -214.584
  O      104.324    -198.656    -214.491
  C      105.683    -196.678    -214.128
  O      106.101    -197.432    -212.961
  C      106.768    -196.816    -215.209
  O      107.434    -195.585    -215.490
  C      107.606    -197.987    -214.711
  O      108.946    -197.977    -215.160
  C      107.439    -197.915    -213.190
  N      107.648    -199.193    -212.511
  C      108.902    -199.424    -211.946
  O      109.841    -198.631    -211.970
  N      109.060    -200.638    -211.331
  C      108.116    -201.623    -211.231
  O      108.316    -202.687    -210.662
  C      106.823    -201.333    -211.870
  C      106.650    -200.152    -212.471
  O      102.016    -199.212    -215.574
  O      103.275    -200.908    -214.129
  H      108.946    -198.322    -216.079
  H      102.634    -201.482    -214.592
  H      109.957    -200.812    -210.905
  H      106.057    -202.096    -211.823
  H      105.706    -199.902    -212.949
  H      108.140    -197.195    -212.761
  H      107.154    -198.919    -215.074
  H      106.321    -197.085    -216.175
  H      105.549    -195.636    -213.820
  H      103.524    -196.857    -213.940
  H      104.130    -196.933    -215.617
  P      107.689    -194.992    -216.948
  C      105.225    -194.669    -217.810
  O      106.439    -194.084    -217.358
  O      108.180    -195.962    -217.970
  O      108.860    -193.903    -216.715
  H      109.395    -193.892    -217.537
  H      104.518    -193.897    -218.032
  H      104.830    -195.305    -217.046
  H      105.413    -195.245    -218.692

 6  7  8  9  10  11  12  13  14  15  16  26  31  32  33  34  35 0
 6-311+G(2d,p)
 ****
 36  37 0
 6-311+G(2d,p)
 ****
 1  2  3  4  5  17  18  19  20  21  22  23  24  25 0
 3-21G
 ****
 27  28  29  30  38  39  40  41  42  43  44  45 0
 3-21G
 ****


