%nproc=1
%NoSave
%Mem=1900MB
#P OB98/GEN NMR

erre ene a

0 1
  C       73.884    -745.104    -491.526
  O       74.247    -746.185    -490.691
  P       74.304    -747.648    -491.383
  C       71.743    -748.025    -491.004
  O       72.823    -747.943    -491.932
  C       70.717    -749.042    -491.508
  O       70.223    -748.660    -492.807
  C       71.265    -750.453    -491.654
  O       71.274    -751.119    -490.412
  C       70.278    -751.052    -492.659
  O       69.067    -751.482    -492.002
  C       70.020    -749.872    -493.593
  N       70.072    -750.201    -498.646
  C       69.048    -750.447    -497.753
  N       67.851    -750.785    -498.287
  N       69.179    -750.370    -496.458
  C       70.441    -750.021    -496.055
  C       71.527    -749.772    -496.850
  C       71.362    -749.812    -498.286
  O       72.202    -749.507    -499.129
  N       72.644    -749.479    -496.097
  C       72.202    -749.518    -494.849
  N       70.860    -749.831    -494.773
  O       74.469    -748.635    -490.126
  O       75.390    -747.830    -492.407
  H       68.411    -751.711    -492.687
  H       75.404    -748.891    -490.016
  H       69.901    -750.269    -499.634
  H       72.807    -749.307    -493.981
  H       68.981    -749.847    -493.955
  H       70.693    -751.933    -493.162
  H       67.678    -750.897    -499.263
  H       72.277    -750.429    -492.091
  H       67.084    -750.985    -497.631
  H       69.864    -749.038    -490.803
  H       71.267    -747.037    -490.920
  H       72.117    -748.310    -490.018
  P       72.479    -752.158    -490.125
  C       71.595    -754.379    -491.138
  O       72.432    -753.252    -491.293
  O       71.984    -752.947    -488.827
  O       73.801    -751.500    -489.900
  H       72.747    -753.150    -488.256
  H       71.257    -754.710    -492.125
  H       70.702    -754.137    -490.538
  H       72.152    -755.179    -490.650
  H       73.882    -744.198    -490.956
  H       72.907    -745.275    -491.927
  H       74.588    -745.020    -492.327

 3  4  5  6  7  8  9  10  11  12  23  26  30  31 0
 6-311+G(2d,p)
 ****
 33  35  36  37  38 0
 6-311+G(2d,p)
 ****
 1  2  13  14  15  16  17  18  19  20  21  22  24  25 0
 3-21G
 ****
 27  28  29  32  34  39  40  41  42  43  44  45  46  47  48  49 0
 3-21G
 ****


