%nproc=1
%NoSave
%Mem=1900MB
#P OB98/GEN NMR

erre ene a

0 1
  C       55.210      39.894      29.122
  O       55.321      39.023      30.244
  P       53.986      38.606      31.024
  C       55.468      36.776      32.231
  O       54.348      37.632      32.236
  C       55.678      36.208      33.645
  O       56.281      37.202      34.500
  C       54.379      35.768      34.316
  O       54.029      34.439      33.976
  C       54.708      35.951      35.784
  O       55.521      34.861      36.256
  C       55.531      37.261      35.748
  N       54.799      38.546      35.798
  C       54.364      39.047      37.022
  O       54.542      38.488      38.101
  N       53.710      40.251      36.981
  C       53.597      41.071      35.897
  O       53.052      42.166      35.932
  C       54.204      40.563      34.662
  C       54.754      39.346      34.664
  O       53.221      37.660      29.989
  O       53.139      39.761      31.458
  H       54.916      34.160      36.557
  H       52.379      38.068      29.713
  H       53.326      40.595      37.848
  H       54.180      41.201      33.788
  H       55.206      38.961      33.753
  H       56.259      37.282      36.567
  H       53.809      35.945      36.394
  H       53.571      36.460      34.064
  H       56.367      35.357      33.576
  H       56.365      37.309      31.908
  H       55.307      35.963      31.516
  P       52.715      34.158      33.107
  C       53.848      32.276      31.782
  O       52.804      32.614      32.676
  O       52.441      35.122      32.002
  O       51.539      34.144      34.198
  H       51.100      35.023      34.247
  H       53.897      31.187      31.696
  H       54.806      32.646      32.156
  H       53.644      32.701      30.796
  H       56.182      40.076      28.714
  H       54.774      40.821      29.432
  H       54.590      39.440      28.378

 3  4  5  6  7  8  9  10  11  12  13  23  28  29  30  31  32 0
 6-311+G(2d,p)
 ****
 33  34 0
 6-311+G(2d,p)
 ****
 1  2  14  15  16  17  18  19  20  21  22  24  25  26  27 0
 3-21G
 ****
 35  36  37  38  39  40  41  42  43  44  45 0
 3-21G
 ****


