%nproc=1
%NoSave
%Mem=1900MB
#P OB98/GEN NMR

erre ene a

0 1
  C     -156.248     338.522     233.118
  O     -156.709     338.739     234.438
  H     -156.582     337.534     232.786
  H     -155.155     338.550     233.091
  H     -156.658     339.280     232.444
  P     -156.277     340.116     235.139
  C     -154.333     339.101     236.537
  O     -155.612     339.722     236.547
  C     -154.116     338.362     237.855
  O     -152.854     337.657     237.817
  C     -154.041     339.269     239.072
  O     -155.319     339.700     239.507
  C     -153.352     338.350     240.073
  O     -154.295     337.483     240.725
  C     -152.382     337.546     239.175
  N     -151.003     337.998     239.319
  C     -150.277     337.420     240.361
  O     -150.758     336.580     241.124
  N     -148.994     337.868     240.520
  C     -148.392     338.845     239.778
  O     -147.257     339.253     240.020
  C     -149.194     339.415     238.683
  C     -150.449     338.979     238.510
  O     -157.680     340.773     235.548
  O     -155.449     341.027     234.291
  H     -157.907     341.483     234.923
  H     -154.918     338.064     241.201
  H     -148.462     337.465     241.277
  H     -148.744     340.184     238.069
  H     -151.067     339.396     237.723
  H     -152.415     336.479     239.440
  H     -152.852     338.918     240.862
  H     -153.380     340.127     238.873
  H     -154.920     337.622     237.974
  H     -153.553     339.868     236.425
  H     -154.277     338.412     235.687
  P     -155.711     341.243     239.322
  C     -154.738     341.892     241.680
  O     -155.852     341.863     240.798
  O     -157.221     341.118     238.812
  O     -154.798     341.993     238.410
  H     -157.705     340.374     239.224
  H     -155.029     342.339     242.607
  H     -153.949     342.465     241.240
  H     -154.397     340.893     241.857

 6  7  8  9  10  11  12  13  14  15  16  27  31  32  33  34  35 0
 6-311+G(2d,p)
 ****
 36  37 0
 6-311+G(2d,p)
 ****
 1  2  3  4  5  17  18  19  20  21  22  23  24  25 0
 3-21G
 ****
 26  28  29  30  38  39  40  41  42  43  44  45 0
 3-21G
 ****


