%nproc=1
%NoSave
%Mem=1900MB
#P OB98/GEN NMR

erre ene a

0 1
  C     1121.206    -897.320    -540.847
  O     1120.126    -897.420    -539.944
  H     1120.859    -896.830    -541.761
  H     1121.585    -898.310    -541.108
  H     1122.019    -896.730    -540.405
  P     1120.393    -898.210    -538.574
  C     1117.896    -898.940    -538.396
  O     1118.997    -898.260    -537.787
  C     1116.585    -898.340    -537.874
  O     1116.416    -898.690    -536.473
  C     1116.530    -896.820    -537.928
  O     1116.223    -896.330    -539.221
  C     1115.401    -896.540    -536.933
  O     1114.105    -896.650    -537.561
  C     1115.607    -897.640    -535.880
  N     1116.206    -897.110    -534.657
  C     1115.400    -896.300    -533.891
  O     1114.225    -896.000    -534.212
  N     1115.948    -895.760    -532.763
  C     1117.243    -895.940    -532.376
  O     1117.703    -895.380    -531.362
  C     1118.080    -896.790    -533.217
  C     1117.526    -897.350    -534.315
  O     1121.280    -897.180    -537.725
  O     1121.073    -899.520    -538.726
  H     1122.200    -897.470    -537.697
  H     1114.031    -895.850    -538.127
  H     1115.376    -895.150    -532.196
  H     1119.119    -896.950    -532.939
  H     1118.125    -897.970    -534.970
  H     1114.640    -898.100    -535.620
  H     1115.479    -895.540    -536.523
  H     1117.462    -896.400    -537.540
  H     1115.759    -898.780    -538.429
  H     1117.944    -900.000    -538.132
  H     1117.978    -898.840    -539.480
  P     1117.252    -895.270    -539.875
  C     1115.603    -893.470    -540.876
  O     1116.471    -894.580    -541.091
  O     1118.298    -896.260    -540.566
  O     1117.838    -894.320    -538.861
  H     1117.898    -897.120    -540.806
  H     1115.183    -893.160    -541.810
  H     1116.158    -892.661    -540.448
  H     1114.817    -893.756    -540.208

 6  7  8  9  10  11  12  13  14  15  16  27  31  32  33  34  35 0
 6-311+G(2d,p)
 ****
 36  37 0
 6-311+G(2d,p)
 ****
 1  2  3  4  5  17  18  19  20  21  22  23  24  25 0
 3-21G
 ****
 26  28  29  30  38  39  40  41  42  43  44  45 0
 3-21G
 ****


