%nproc=1
%NoSave
%Mem=1900MB
#P OB98/GEN NMR

erre ene a

0 1
  C      169.980      65.556     106.890
  O      171.167      65.065     106.309
  H      170.127      66.611     107.142
  H      169.753      65.014     107.811
  H      169.145      65.476     106.190
  P      171.250      63.521     105.876
  C      173.538      63.241     107.007
  O      172.825      63.194     105.778
  C      175.015      63.559     106.773
  O      175.171      64.981     106.514
  C      175.920      63.205     107.964
  O      177.074      62.499     107.502
  C      176.338      64.562     108.511
  O      177.564      64.518     109.233
  C      176.349      65.398     107.227
  N      176.353      66.829     107.506
  C      177.600      67.399     107.781
  O      178.616      66.703     107.772
  N      177.661      68.729     108.111
  C      176.565      69.417     108.208
  N      176.693      70.723     108.567
  C      175.226      68.848     107.953
  C      175.193      67.560     107.607
  O      170.455      63.169     104.665
  O      170.803      62.707     107.179
  H      178.268      64.187     108.631
  H      170.492      61.813     106.907
  H      174.344      69.463     108.051
  H      174.256      67.054     107.402
  H      177.225      65.159     106.610
  H      175.558      64.931     109.191
  H      175.418      62.605     108.722
  H      175.341      63.043     105.861
  H      177.630      71.069     108.739
  H      173.430      62.275     107.512
  H      175.913      71.348     108.697
  H      173.099      64.025     107.632
  P      177.616      61.325     108.454
  C      180.084      62.130     108.465
  O      179.170      61.097     108.122
  O      176.899      60.019     107.872
  O      177.294      61.534     109.896
  H      176.228      59.699     108.505
  H      181.074      61.837     108.185
  H      180.048      62.303     109.520
  H      179.818      63.028     107.947

 6  7  8  9  10  11  12  13  14  15  16  26  30  31  32  33  35 0
 6-311+G(2d,p)
 ****
 37  38 0
 6-311+G(2d,p)
 ****
 1  2  3  4  5  17  18  19  20  21  22  23  24  25 0
 3-21G
 ****
 27  28  29  34  36  39  40  41  42  43  44  45  46 0
 3-21G
 ****


