%nproc=1
%NoSave
%Mem=1900MB
#P OB98/GEN NMR

erre ene a

0 1
  C      -35.977    -202.030    -948.796
  O      -35.494    -202.290    -950.102
  H      -35.874    -202.924    -948.176
  H      -35.381    -201.224    -948.355
  H      -37.021    -201.711    -948.838
  P      -36.245    -203.437    -950.938
  C      -37.853    -201.636    -951.904
  O      -36.939    -202.690    -952.178
  C      -37.720    -200.549    -952.966
  O      -36.440    -199.896    -952.848
  C      -37.790    -201.066    -954.401
  O      -39.124    -201.271    -954.830
  C      -37.144    -199.904    -955.142
  O      -38.086    -198.821    -955.267
  C      -36.008    -199.518    -954.189
  N      -31.628    -199.213    -956.822
  C      -32.702    -198.398    -956.758
  N      -33.831    -198.544    -956.035
  C      -33.786    -199.689    -955.323
  C      -32.764    -200.623    -955.292
  C      -31.635    -200.345    -956.085
  N      -30.546    -201.183    -956.167
  N      -33.094    -201.683    -954.472
  C      -34.281    -201.376    -953.988
  N      -34.748    -200.185    -954.485
  O      -37.488    -203.826    -950.006
  O      -35.411    -204.617    -951.306
  H      -38.440    -198.657    -954.371
  H      -37.818    -204.715    -950.248
  H      -32.650    -197.497    -957.372
  H      -34.845    -201.978    -953.285
  H      -35.814    -198.440    -954.183
  H      -36.821    -200.173    -956.155
  H      -37.175    -201.970    -954.534
  H      -38.500    -199.796    -952.783
  H      -37.624    -201.213    -950.919
  H      -29.884    -200.988    -956.896
  H      -30.608    -202.101    -955.744
  H      -38.874    -202.033    -951.891
  P      -39.411    -202.538    -955.774
  C      -40.504    -203.758    -953.754
  O      -40.633    -203.322    -955.103
  O      -38.158    -203.496    -955.488
  O      -39.556    -202.220    -957.220
  H      -37.974    -204.076    -956.248
  H      -41.399    -204.262    -953.455
  H      -40.342    -202.912    -953.120
  H      -39.674    -204.428    -953.674

 6  7  8  9  10  11  12  13  14  15  25  28  32  33  34  35 0
 6-311+G(2d,p)
 ****
 36  39  40 0
 6-311+G(2d,p)
 ****
 1  2  3  4  5  16  17  18  19  20  21  22  23  24 0
 3-21G
 ****
 26  27  29  30  31  37  38  41  42  43  44  45  46  47 0
 3-21G
 ****
 48 0
 3-21G
 ****


