%nproc=1
%NoSave
%Mem=1900MB
#P OB98/GEN NMR

erre ene a

0 1
  C      228.894    -200.023      12.869
  O      229.931    -199.877      13.850
  P      231.397    -199.330      13.492
  C      230.840    -196.843      13.084
  O      231.507    -197.789      13.917
  C      231.830    -195.892      12.405
  O      231.193    -195.183      11.322
  C      232.404    -194.812      13.312
  O      233.394    -195.342      14.177
  C      232.919    -193.808      12.284
  O      234.215    -194.196      11.792
  C      231.856    -193.914      11.173
  N      230.909    -192.809      11.200
  C      231.284    -191.642      10.528
  O      232.395    -191.558       9.996
  N      230.403    -190.585      10.495
  C      229.283    -190.663      11.136
  N      228.446    -189.589      11.059
  C      228.884    -191.837      11.932
  C      229.735    -192.864      11.919
  O      231.821    -199.605      12.086
  O      232.378    -200.070      14.525
  H      234.146    -195.134      11.543
  H      233.248    -200.193      14.103
  H      227.952    -191.850      12.479
  H      229.518    -193.772      12.472
  H      232.335    -193.939      10.186
  H      233.022    -192.799      12.693
  H      231.595    -194.351      13.894
  H      232.638    -196.502      11.975
  H      228.748    -188.804      10.502
  H      230.152    -196.264      13.708
  H      227.550    -189.548      11.523
  H      230.258    -197.388      12.332
  P      233.397    -194.939      15.728
  C      231.196    -196.034      16.464
  O      232.611    -196.081      16.526
  O      232.970    -193.537      16.030
  O      234.918    -195.181      16.178
  H      235.145    -194.542      16.881
  H      230.799    -197.030      16.680
  H      230.852    -195.717      15.474
  H      230.823    -195.333      17.219
  H      228.010    -200.402      13.338
  H      229.215    -200.705      12.109
  H      228.683    -199.071      12.428

 3  4  5  6  7  8  9  10  11  12  13  23  27  28  29  30  32 0
 6-311+G(2d,p)
 ****
 34  35 0
 6-311+G(2d,p)
 ****
 1  2  14  15  16  17  18  19  20  21  22  24  25  26 0
 3-21G
 ****
 31  33  36  37  38  39  40  41  42  43  44  45  46 0
 3-21G
 ****


