%nproc=1
%NoSave
%Mem=1900MB
#P OB98/GEN NMR

erre ene a

0 1
  C      193.617      99.996     -75.095
  O      194.009     100.242     -73.738
  P      195.498     100.671     -73.313
  C      197.904      99.935     -73.936
  O      196.524      99.588     -73.915
  C      198.704      98.942     -74.785
  O      198.780      97.658     -74.115
  C      198.100      98.614     -76.146
  O      198.253      99.679     -77.071
  C      198.869      97.346     -76.517
  O      200.137      97.655     -77.115
  C      199.085      96.678     -75.142
  N      198.288      95.473     -74.965
  C      198.945      94.252     -75.176
  O      200.109      94.231     -75.574
  N      198.246      93.092     -74.944
  C      196.989      93.136     -74.637
  N      196.360      91.951     -74.401
  C      196.229      94.399     -74.537
  C      196.936      95.517     -74.710
  O      195.666     100.906     -71.844
  O      195.811     102.003     -74.150
  H      196.471     102.540     -73.673
  H      199.957      98.275     -77.850
  H      195.168      94.393     -74.320
  H      196.456      96.491     -74.641
  H      200.145      96.435     -75.003
  H      198.319      96.724     -77.231
  H      197.037      98.374     -76.022
  H      199.725      99.334     -74.903
  H      196.913      91.103     -74.466
  H      198.285      99.910     -72.908
  H      195.389      91.883     -74.134
  H      198.013     100.957     -74.321
  P      196.921     100.483     -77.477
  C      194.991     100.121     -79.179
  O      196.066      99.543     -78.457
  O      197.467     101.648     -78.443
  O      196.162     101.044     -76.321
  H      196.975     102.473     -78.265
  H      194.843      99.550     -80.101
  H      195.190     101.166     -79.438
  H      194.081     100.064     -78.574
  H      192.582      99.726     -75.124
  H      194.205      99.198     -75.497
  H      193.771     100.881     -75.677

 3  4  5  6  7  8  9  10  11  12  13  24  27  28  29  30  32 0
 6-311+G(2d,p)
 ****
 34  35 0
 6-311+G(2d,p)
 ****
 1  2  14  15  16  17  18  19  20  21  22  23  25  26 0
 3-21G
 ****
 31  33  36  37  38  39  40  41  42  43  44  45  46 0
 3-21G
 ****


