%nproc=1
%NoSave
%Mem=1900MB
#P OB98/GEN NMR

erre ene a

0 1
  C      268.661     333.801    -520.509
  O      267.828     332.868    -521.167
  P      266.538     333.338    -522.008
  C      264.719     332.854    -520.230
  O      265.323     332.447    -521.448
  C      264.474     331.641    -519.327
  O      263.590     330.720    -520.023
  C      265.745     330.866    -518.949
  O      265.559     330.377    -517.614
  C      265.750     329.721    -519.949
  O      266.529     328.619    -519.499
  C      264.256     329.438    -520.077
  N      263.918     328.720    -521.300
  C      263.968     327.321    -521.272
  O      264.312     326.726    -520.255
  N      263.633     326.631    -522.406
  C      263.355     327.278    -523.496
  N      262.963     326.541    -524.577
  C      263.394     328.749    -523.600
  C      263.658     329.394    -522.468
  O      266.707     333.298    -523.488
  O      266.198     334.782    -521.420
  H      266.066     328.197    -518.752
  H      266.710     335.510    -521.854
  H      263.178     329.240    -524.540
  H      263.680     330.477    -522.446
  H      263.896     328.871    -519.200
  H      266.169     330.069    -520.896
  H      266.648     331.487    -518.985
  H      263.949     331.981    -518.428
  H      262.781     325.560    -524.421
  H      263.756     333.320    -520.462
  H      262.433     326.967    -525.336
  H      265.349     333.597    -519.729
  P      266.788     330.496    -516.583
  C      267.907     328.184    -516.900
  O      267.151     329.019    -516.071
  O      266.059     331.132    -515.293
  O      267.924     331.371    -516.998
  H      266.713     331.620    -514.766
  H      268.060     327.230    -516.395
  H      268.882     328.622    -517.116
  H      267.375     327.990    -517.846
  H      269.455     333.283    -520.013
  H      268.087     334.347    -519.790
  H      269.072     334.480    -521.226

 3  4  5  6  7  8  9  10  11  12  13  23  27  28  29  30  32 0
 6-311+G(2d,p)
 ****
 34  35 0
 6-311+G(2d,p)
 ****
 1  2  14  15  16  17  18  19  20  21  22  24  25  26 0
 3-21G
 ****
 31  33  36  37  38  39  40  41  42  43  44  45  46 0
 3-21G
 ****


