%nproc=1
%NoSave
%Mem=1900MB
#P OB98/GEN NMR

erre ene a

0 1
  C      543.564    -928.257    1138.413
  O      542.735    -929.388    1138.532
  P      541.684    -929.429    1139.768
  C      539.213    -930.304    1140.012
  O      540.331    -930.049    1139.169
  C      538.075    -930.956    1139.202
  O      537.499    -929.981    1138.304
  C      538.528    -932.116    1138.330
  O      538.729    -933.306    1139.068
  C      537.359    -932.176    1137.332
  O      536.238    -932.880    1137.913
  C      537.028    -930.687    1137.123
  N      537.567    -930.110    1135.915
  C      536.788    -930.213    1134.754
  O      535.680    -930.777    1134.770
  N      537.313    -929.686    1133.612
  C      538.565    -929.140    1133.469
  O      538.978    -928.719    1132.408
  C      539.349    -929.086    1134.719
  C      538.834    -929.578    1135.847
  O      541.372    -927.870    1139.912
  O      542.230    -930.091    1140.988
  H      541.485    -927.378    1139.070
  H      535.583    -932.937    1137.211
  H      536.747    -929.754    1132.764
  H      540.351    -928.639    1134.632
  H      539.413    -929.525    1136.764
  H      535.934    -930.549    1137.119
  H      537.625    -932.690    1136.400
  H      539.442    -931.857    1137.773
  H      537.299    -931.280    1139.902
  H      538.861    -929.362    1140.431
  H      539.522    -930.965    1140.838
  P      539.266    -934.598    1138.245
  C      540.877    -936.545    1138.846
  O      540.363    -935.268    1139.189
  O      540.123    -933.878    1137.095
  O      538.177    -935.482    1137.762
  H      540.664    -933.123    1137.415
  H      541.833    -936.692    1139.341
  H      541.037    -936.646    1137.750
  H      540.191    -937.325    1139.177
  H      544.199    -928.369    1137.559
  H      544.164    -928.160    1139.294
  H      542.959    -927.382    1138.295

 3  4  5  6  7  8  9  10  11  12  13  24  28  29  30  31  32 0
 6-311+G(2d,p)
 ****
 33  34 0
 6-311+G(2d,p)
 ****
 1  2  14  15  16  17  18  19  20  21  22  23  25  26  27 0
 3-21G
 ****
 35  36  37  38  39  40  41  42  43  44  45 0
 3-21G
 ****


