%nproc=1
%NoSave
%Mem=1900MB
#P OB98/GEN NMR

erre ene a

0 1
  C      376.663    -607.720    -231.769
  O      377.146    -606.445    -231.337
  P      378.133    -605.641    -232.314
  C      376.393    -603.883    -233.134
  O      377.259    -604.960    -233.473
  C      375.592    -603.435    -234.352
  O      374.836    -604.516    -234.930
  C      374.566    -602.349    -234.046
  O      375.166    -601.058    -234.012
  C      373.645    -602.463    -235.249
  O      374.225    -601.799    -236.385
  C      373.614    -603.982    -235.486
  N      369.035    -606.128    -236.321
  C      369.907    -605.509    -237.149
  N      371.098    -604.949    -236.849
  C      371.372    -605.081    -235.546
  C      370.577    -605.681    -234.576
  C      369.357    -606.222    -235.008
  N      368.471    -606.844    -234.159
  N      371.185    -605.617    -233.337
  C      372.325    -605.001    -233.556
  N      372.482    -604.646    -234.872
  O      378.906    -606.814    -233.083
  O      379.082    -604.733    -231.608
  H      374.068    -600.844    -236.264
  H      379.828    -606.537    -233.270
  H      369.611    -605.464    -238.190
  H      373.070    -604.790    -232.799
  H      373.599    -604.232    -236.556
  H      372.665    -602.006    -235.076
  H      374.015    -602.575    -233.123
  H      376.296    -603.068    -235.108
  H      376.974    -603.049    -232.734
  H      367.635    -607.235    -234.547
  H      368.720    -606.948    -233.183
  H      375.730    -604.206    -232.326
  P      375.343    -600.372    -232.573
  C      377.920    -600.414    -232.906
  O      376.819    -600.759    -232.087
  O      374.380    -601.244    -231.639
  O      374.996    -598.923    -232.541
  H      374.034    -600.695    -230.910
  H      378.835    -600.464    -232.305
  H      377.819    -599.396    -233.297
  H      378.002    -601.121    -233.738
  H      376.021    -608.131    -231.018
  H      377.490    -608.379    -231.931
  H      376.116    -607.604    -232.681

 3  4  5  6  7  8  9  10  11  12  22  25  29  30  31  32 0
 6-311+G(2d,p)
 ****
 33  36  37 0
 6-311+G(2d,p)
 ****
 1  2  13  14  15  16  17  18  19  20  21  23  24  26 0
 3-21G
 ****
 27  28  34  35  38  39  40  41  42  43  44  45  46  47  48 0
 3-21G
 ****


