%nproc=1
%NoSave
%Mem=1900MB
#P OB98/GEN NMR

erre ene a

0 1
  C       23.355     392.251     -84.492
  O       23.522     393.416     -83.683
  P       24.012     393.259     -82.167
  C       26.457     393.895     -82.726
  O       25.582     392.932     -82.149
  C       26.699     395.041     -81.739
  O       27.464     394.601     -80.592
  C       27.520     396.175     -82.337
  O       26.895     396.955     -83.336
  C       28.021     396.900     -81.100
  O       27.045     397.808     -80.591
  C       28.236     395.724     -80.118
  N       29.648     395.372     -79.961
  C       30.240     395.747     -78.759
  O       29.653     396.378     -77.884
  N       31.558     395.403     -78.613
  C       32.329     394.765     -79.541
  O       33.511     394.502     -79.366
  C       31.652     394.416     -80.800
  C       30.363     394.730     -80.950
  O       23.171     392.386     -81.300
  O       23.975     394.774     -81.628
  H       27.024     398.578     -81.191
  H       23.621     394.759     -80.717
  H       32.003     395.660     -77.745
  H       32.234     393.916     -81.561
  H       29.846     394.481     -81.870
  H       27.844     395.979     -79.126
  H       28.922     397.485     -81.313
  H       28.403     395.732     -82.822
  H       25.734     395.396     -81.374
  H       26.028     394.278     -83.652
  H       27.396     393.402     -83.000
  P       27.688     397.992     -84.268
  C       27.938     396.523     -86.391
  O       28.579     397.156     -85.306
  O       28.331     399.161     -83.601
  O       26.507     398.530     -85.215
  H       26.694     399.461     -85.439
  H       28.690     395.991     -86.981
  H       27.450     397.263     -87.031
  H       27.202     395.799     -86.030
  H       23.025     392.539     -85.468
  H       22.626     391.608     -84.045
  H       24.288     391.733     -84.569

 3  4  5  6  7  8  9  10  11  12  13  23  28  29  30  31  32 0
 6-311+G(2d,p)
 ****
 33  34 0
 6-311+G(2d,p)
 ****
 1  2  14  15  16  17  18  19  20  21  22  24  25  26  27 0
 3-21G
 ****
 35  36  37  38  39  40  41  42  43  44  45 0
 3-21G
 ****


