%nproc=1
%NoSave
%Mem=1900MB
#P OB98/GEN NMR

erre ene a

0 1
  C       41.953    -377.742     154.002
  O       41.111    -378.062     152.912
  P       41.613    -377.816     151.410
  C       42.400    -380.295     151.317
  O       42.716    -378.938     151.096
  C       42.899    -381.173     150.162
  O       42.334    -382.494     150.333
  C       42.468    -380.712     148.774
  O       43.314    -381.338     147.804
  C       41.072    -381.287     148.675
  O       40.626    -381.387     147.327
  C       41.209    -382.631     149.431
  N       39.984    -382.957     150.183
  C       39.373    -384.172     149.892
  O       39.847    -384.991     149.105
  N       38.147    -384.376     150.470
  C       37.483    -383.479     151.252
  O       36.285    -383.543     151.502
  C       38.280    -382.330     151.713
  C       39.468    -382.111     151.146
  O       42.465    -376.467     151.538
  O       40.528    -377.692     150.396
  H       40.784    -380.511     146.906
  H       41.920    -375.699     151.291
  H       37.638    -385.189     150.143
  H       37.845    -381.673     152.454
  H       40.056    -381.243     151.429
  H       41.412    -383.461     148.742
  H       40.375    -380.628     149.206
  H       42.474    -379.629     148.639
  H       43.992    -381.263     150.217
  H       41.320    -380.400     151.441
  H       42.857    -380.641     152.253
  P       43.437    -380.645     146.362
  C       45.743    -379.745     147.043
  O       44.464    -379.428     146.532
  O       42.148    -380.313     145.686
  O       44.290    -381.715     145.523
  H       44.175    -381.551     144.570
  H       46.467    -379.031     146.645
  H       46.049    -380.759     146.763
  H       45.724    -379.663     148.134
  H       41.452    -377.972     154.919
  H       42.188    -376.699     153.977
  H       42.856    -378.313     153.935

 3  4  5  6  7  8  9  10  11  12  13  23  28  29  30  31  32 0
 6-311+G(2d,p)
 ****
 33  34 0
 6-311+G(2d,p)
 ****
 1  2  14  15  16  17  18  19  20  21  22  24  25  26  27 0
 3-21G
 ****
 35  36  37  38  39  40  41  42  43  44  45 0
 3-21G
 ****


