%nproc=1
%NoSave
%Mem=1900MB
#P OB98/GEN NMR

erre ene a

0 1
  C      303.324     160.456    -392.939
  O      303.960     159.853    -394.047
  P      304.968     158.619    -393.862
  C      303.139     156.823    -394.074
  O      304.092     157.435    -393.219
  C      302.841     155.391    -393.642
  O      304.085     154.709    -393.318
  C      301.919     155.265    -392.421
  O      301.142     154.080    -392.617
  C      302.907     155.074    -391.282
  O      302.303     154.508    -390.125
  C      303.966     154.205    -391.969
  N      305.239     154.233    -391.256
  C      305.220     153.819    -389.922
  O      304.151     153.532    -389.378
  N      306.397     153.801    -389.215
  C      307.483     154.250    -389.766
  N      308.620     154.202    -389.024
  C      307.518     154.815    -391.132
  C      306.378     154.761    -391.820
  O      306.231     158.933    -393.138
  O      305.200     158.098    -395.359
  H      302.972     154.479    -389.409
  H      305.833     158.694    -395.836
  H      308.432     155.229    -391.530
  H      306.308     155.146    -392.824
  H      303.628     153.164    -392.040
  H      303.330     156.042    -390.997
  H      301.270     156.133    -392.269
  H      302.392     154.859    -394.492
  H      308.550     153.795    -388.103
  H      303.549     156.806    -395.085
  H      309.525     154.451    -389.386
  H      302.216     157.423    -394.094
  P      299.537     154.137    -392.686
  C      299.641     153.480    -395.151
  O      299.145     154.409    -394.204
  O      298.898     155.057    -391.692
  O      299.081     152.614    -392.455
  H      298.133     152.593    -392.225
  H      299.089     153.595    -396.090
  H      299.521     152.453    -394.795
  H      300.700     153.677    -395.340
  H      302.698     161.255    -393.278
  H      304.064     160.843    -392.270
  H      302.728     159.728    -392.430

 3  4  5  6  7  8  9  10  11  12  13  23  27  28  29  30  32 0
 6-311+G(2d,p)
 ****
 34  35 0
 6-311+G(2d,p)
 ****
 1  2  14  15  16  17  18  19  20  21  22  24  25  26 0
 3-21G
 ****
 31  33  36  37  38  39  40  41  42  43  44  45  46 0
 3-21G
 ****


