%nproc=1
%NoSave
%Mem=1900MB
#P OB98/GEN NMR

erre ene a

0 1
  C     -351.147    -120.562    -336.959
  O     -350.328    -119.494    -336.517
  H     -350.654    -121.051    -337.807
  H     -352.124    -120.198    -337.281
  H     -351.268    -121.296    -336.160
  P     -350.941    -118.466    -335.448
  C     -350.460    -116.130    -336.440
  O     -351.409    -117.185    -336.305
  C     -351.129    -114.859    -336.976
  O     -351.580    -115.065    -338.334
  C     -352.370    -114.446    -336.199
  O     -352.104    -113.972    -334.895
  C     -353.092    -113.539    -337.193
  O     -352.647    -112.183    -337.154
  C     -352.699    -114.182    -338.548
  N     -353.823    -114.869    -339.171
  C     -354.947    -114.086    -339.413
  O     -355.039    -112.896    -339.103
  N     -356.016    -114.740    -339.982
  C     -356.070    -116.069    -340.277
  O     -357.073    -116.597    -340.749
  C     -354.864    -116.849    -339.973
  C     -353.805    -116.222    -339.447
  O     -350.058    -118.127    -334.284
  O     -352.330    -119.142    -335.023
  H     -352.905    -111.820    -336.286
  H     -352.677    -118.747    -334.185
  H     -356.841    -114.184    -340.173
  H     -354.871    -117.910    -340.200
  H     -352.903    -116.778    -339.212
  H     -352.347    -113.403    -339.240
  H     -354.176    -113.533    -337.009
  H     -353.001    -115.327    -336.074
  H     -350.380    -114.050    -336.987
  H     -349.695    -116.457    -337.151
  H     -349.985    -115.931    -335.474
  P     -353.246    -113.673    -333.816
  C     -352.711    -111.156    -333.451
  O     -353.649    -112.121    -333.925
  O     -353.072    -114.276    -332.462
  O     -354.523    -114.401    -334.499
  H     -355.077    -114.753    -333.781
  H     -353.111    -110.173    -333.586
  H     -351.797    -111.247    -334.000
  H     -352.521    -111.324    -332.411

 6  7  8  9  10  11  12  13  14  15  16  26  31  32  33  34  35 0
 6-311+G(2d,p)
 ****
 36  37 0
 6-311+G(2d,p)
 ****
 1  2  3  4  5  17  18  19  20  21  22  23  24  25 0
 3-21G
 ****
 27  28  29  30  38  39  40  41  42  43  44  45 0
 3-21G
 ****


