%nproc=1
%NoSave
%Mem=1900MB
#P OB98/GEN NMR

erre ene a

0 1
  C      -86.088    -384.635    -129.962
  O      -87.377    -385.180    -130.184
  H      -85.751    -384.939    -128.964
  H      -86.128    -383.546    -130.010
  H      -85.382    -385.022    -130.703
  P      -88.060    -384.859    -131.596
  C      -88.582    -382.325    -131.348
  O      -87.730    -383.310    -131.917
  C      -88.168    -380.931    -131.819
  O      -88.213    -380.892    -133.277
  C      -89.070    -379.800    -131.314
  O      -88.267    -378.652    -131.023
  C      -89.959    -379.487    -132.502
  O      -90.506    -378.184    -132.451
  C      -88.975    -379.727    -133.646
  N      -90.624    -377.323    -137.761
  C      -89.916    -376.853    -136.668
  N      -89.602    -375.546    -136.662
  N      -89.543    -377.609    -135.657
  C      -89.905    -378.910    -135.805
  C      -90.617    -379.495    -136.830
  C      -91.038    -378.651    -137.935
  O      -91.671    -378.998    -138.917
  N      -90.811    -380.839    -136.592
  C      -90.225    -381.068    -135.423
  N      -89.666    -379.910    -134.914
  O      -89.626    -384.830    -131.250
  O      -87.738    -385.806    -132.701
  H      -91.005    -378.030    -133.285
  H      -90.158    -385.111    -132.022
  H      -90.885    -376.693    -138.493
  H      -90.173    -382.010    -134.911
  H      -88.288    -378.890    -133.794
  H      -90.785    -380.210    -132.548
  H      -89.820    -374.898    -137.419
  H      -89.642    -380.079    -130.416
  H      -89.075    -375.177    -135.866
  H      -87.120    -380.762    -131.540
  H      -88.511    -382.374    -130.257
  H      -89.619    -382.516    -131.646
  P      -87.399    -378.670    -129.676
  C      -89.185    -377.894    -127.945
  O      -88.389    -378.956    -128.429
  O      -86.995    -377.119    -129.479
  O      -86.184    -379.532    -129.740
  H      -86.060    -376.992    -129.672
  H      -89.780    -378.239    -127.126
  H      -89.825    -377.542    -128.727
  H      -88.553    -377.096    -127.615

 6  7  8  9  10  11  12  13  14  15  26  29  33  34 0
 6-311+G(2d,p)
 ****
 36  38  39  40  41 0
 6-311+G(2d,p)
 ****
 1  2  3  4  5  16  17  18  19  20  21  22  23  24  25 0
 3-21G
 ****
 27  28  30  31  32  35  37  42  43  44  45  46  47 0
 3-21G
 ****
 48  49 0
 3-21G
 ****


