%nproc=1
%NoSave
%Mem=1900MB
#P OB98/GEN NMR

erre ene a

0 1
  C      -26.047     -61.482     -86.987
  O      -25.620     -62.508     -86.113
  H      -27.057     -61.176     -86.702
  H      -26.069     -61.855     -88.015
  H      -25.381     -60.617     -86.917
  P      -24.090     -62.979     -86.246
  C      -22.932     -61.807     -84.202
  O      -23.506     -62.978     -84.752
  C      -22.577     -62.022     -82.729
  O      -23.802     -62.038     -81.954
  C      -21.836     -63.333     -82.461
  O      -20.891     -63.111     -81.412
  C      -22.933     -64.258     -81.961
  O      -22.416     -65.329     -81.176
  C      -23.836     -63.270     -81.205
  N      -25.201     -63.769     -81.051
  C      -25.464     -64.540     -79.915
  O      -24.565     -64.780     -79.107
  N      -26.722     -65.054     -79.737
  C      -27.626     -64.873     -80.649
  N      -28.846     -65.430     -80.427
  C      -27.381     -64.105     -81.886
  C      -26.163     -63.580     -82.016
  O      -23.411     -61.697     -86.921
  O      -23.900     -64.249     -87.004
  H      -21.982     -64.951     -80.379
  H      -23.690     -60.856     -86.522
  H      -28.162     -63.990     -82.622
  H      -25.899     -62.995     -82.888
  H      -23.431     -63.065     -80.206
  H      -23.473     -64.693     -82.809
  H      -21.325     -63.719     -83.344
  H      -21.994     -61.161     -82.383
  H      -28.964     -65.967     -79.577
  H      -23.627     -60.966     -84.288
  H      -29.605     -65.401     -81.091
  H      -22.034     -61.566     -84.778
  P      -19.414     -63.714     -81.541
  C      -18.158     -61.529     -80.961
  O      -18.418     -62.881     -80.602
  O      -18.931     -63.950     -82.931
  O      -19.536     -65.111     -80.752
  H      -19.035     -65.781     -81.256
  H      -17.482     -61.096     -80.254
  H      -19.075     -60.978     -80.962
  H      -17.721     -61.497     -81.937

 6  7  8  9  10  11  12  13  14  15  16  26  30  31  32  33  35 0
 6-311+G(2d,p)
 ****
 37  38 0
 6-311+G(2d,p)
 ****
 1  2  3  4  5  17  18  19  20  21  22  23  24  25 0
 3-21G
 ****
 27  28  29  34  36  39  40  41  42  43  44  45  46 0
 3-21G
 ****


