%nproc=1
%NoSave
%Mem=1900MB
#P OB98/GEN NMR

erre ene a

0 1
  C     -289.034     444.198     471.560
  O     -290.121     443.326     471.795
  P     -291.628     443.787     471.495
  C     -293.564     444.646     472.942
  O     -292.160     444.618     472.766
  C     -293.934     445.200     474.321
  O     -293.655     444.189     475.339
  C     -293.188     446.482     474.716
  O     -294.115     447.309     475.423
  C     -292.106     445.970     475.649
  O     -291.615     446.991     476.507
  C     -292.837     444.824     476.347
  N     -291.931     443.878     476.967
  C     -292.012     443.743     478.356
  O     -292.722     444.503     479.011
  N     -291.259     442.760     478.966
  C     -290.383     442.106     478.269
  N     -289.710     441.100     478.894
  C     -290.099     442.401     476.851
  C     -290.931     443.257     476.250
  O     -292.546     442.697     471.045
  O     -291.482     444.917     470.365
  H     -292.056     444.683     469.605
  H     -291.038     446.592     477.181
  H     -289.273     441.919     476.350
  H     -290.822     443.510     475.203
  H     -293.522     445.218     477.111
  H     -291.261     445.588     475.067
  H     -292.803     447.023     473.844
  H     -295.017     445.373     474.341
  H     -289.956     440.904     479.857
  H     -293.936     443.627     472.856
  H     -289.252     440.348     478.377
  H     -294.030     445.244     472.153
  P     -293.887     448.906     475.386
  C     -292.856     450.579     477.089
  O     -292.838     449.278     476.552
  O     -295.272     449.441     476.009
  O     -293.659     449.521     474.046
  H     -295.427     450.354     475.691
  H     -292.033     450.678     477.799
  H     -293.796     450.766     477.610
  H     -292.712     451.323     476.295
  H     -288.120     443.707     471.821
  H     -289.148     445.079     472.156
  H     -289.011     444.468     470.525

 3  4  5  6  7  8  9  10  11  12  13  24  27  28  29  30  32 0
 6-311+G(2d,p)
 ****
 34  35 0
 6-311+G(2d,p)
 ****
 1  2  14  15  16  17  18  19  20  21  22  23  25  26 0
 3-21G
 ****
 31  33  36  37  38  39  40  41  42  43  44  45  46 0
 3-21G
 ****


