%nproc=1
%NoSave
%Mem=1900MB
#P OB98/GEN NMR

erre ene a

0 1
  C       62.680     131.472    -166.740
  O       62.251     130.167    -166.387
  P       61.819     129.104    -167.512
  C       59.261     129.465    -167.574
  O       60.512     129.733    -168.193
  C       58.419     128.566    -168.473
  O       58.506     129.028    -169.836
  C       58.859     127.107    -168.501
  O       58.449     126.429    -167.325
  C       58.207     126.635    -169.795
  O       56.815     126.358    -169.582
  C       58.361     127.875    -170.700
  N       59.484     127.767    -171.625
  C       59.198     127.269    -172.899
  O       58.052     126.950    -173.212
  N       60.218     127.172    -173.812
  C       61.423     127.518    -173.477
  N       62.381     127.466    -174.442
  C       61.779     127.995    -172.128
  C       60.771     128.099    -171.264
  O       61.657     127.706    -167.022
  O       62.918     129.264    -168.657
  H       56.770     125.566    -169.011
  H       63.711     128.689    -168.527
  H       62.800     128.260    -171.893
  H       60.946     128.461    -170.259
  H       57.444     128.040    -171.276
  H       58.669     125.733    -170.211
  H       59.949     127.041    -168.592
  H       57.371     128.643    -168.151
  H       62.060     127.303    -175.390
  H       58.737     130.415    -167.422
  H       63.250     127.976    -174.352
  H       59.433     128.998    -166.598
  P       59.227     125.081    -166.937
  C       57.119     123.574    -167.037
  O       58.384     123.882    -167.594
  O       58.962     124.943    -165.367
  O       60.683     125.095    -167.266
  H       59.744     125.239    -164.863
  H       56.586     122.917    -167.730
  H       56.529     124.482    -166.889
  H       57.248     123.053    -166.086
  H       62.921     132.020    -165.853
  H       61.897     131.974    -167.268
  H       63.546     131.406    -167.365

 3  4  5  6  7  8  9  10  11  12  13  23  27  28  29  30  32 0
 6-311+G(2d,p)
 ****
 34  35 0
 6-311+G(2d,p)
 ****
 1  2  14  15  16  17  18  19  20  21  22  24  25  26 0
 3-21G
 ****
 31  33  36  37  38  39  40  41  42  43  44  45  46 0
 3-21G
 ****


