%nproc=1
%NoSave
%Mem=1900MB
#P OB98/GEN NMR

erre ene a

0 1
  C       70.279    -255.621     -16.510
  O       69.160    -256.517     -16.514
  P       69.080    -257.616     -15.347
  C       67.089    -256.871     -13.852
  O       67.553    -257.753     -14.867
  C       65.556    -256.911     -13.728
  O       64.926    -256.504     -14.972
  C       65.008    -258.306     -13.394
  O       63.806    -258.146     -12.632
  C       64.658    -258.858     -14.760
  O       63.745    -259.956     -14.665
  C       64.105    -257.604     -15.431
  N       61.588    -259.263     -19.477
  C       61.290    -259.377     -18.129
  N       60.127    -259.993     -17.826
  N       62.059    -258.925     -17.176
  C       63.171    -258.301     -17.640
  C       63.583    -258.130     -18.940
  C       62.736    -258.660     -19.985
  O       62.950    -258.602     -21.198
  N       64.779    -257.462     -19.008
  C       65.094    -257.236     -17.741
  N       64.132    -257.689     -16.882
  O       69.793    -256.874     -14.111
  O       69.770    -258.898     -15.677
  H       62.852    -259.581     -14.492
  H       70.668    -257.276     -13.949
  H       60.967    -259.644     -20.174
  H       65.996    -256.746     -17.403
  H       63.064    -257.391     -15.142
  H       65.561    -259.215     -15.265
  H       59.465    -260.322     -18.512
  H       65.700    -258.953     -12.840
  H       59.860    -260.055     -16.847
  H       65.254    -256.199     -12.957
  H       67.408    -255.846     -14.071
  H       67.571    -257.136     -12.906
  P       63.915    -258.345     -11.046
  C       63.823    -255.873     -10.263
  O       63.145    -257.105     -10.390
  O       65.458    -258.038     -10.731
  O       63.503    -259.696     -10.555
  H       65.735    -258.491      -9.916
  H       63.470    -255.187     -11.041
  H       64.910    -255.989     -10.353
  H       63.605    -255.440      -9.277
  H       70.201    -254.949     -17.339
  H       71.186    -256.183     -16.591
  H       70.285    -255.062     -15.597

 3  4  5  6  7  8  9  10  11  12  23  26  30  31 0
 6-311+G(2d,p)
 ****
 33  35  36  37  38 0
 6-311+G(2d,p)
 ****
 1  2  13  14  15  16  17  18  19  20  21  22  24  25 0
 3-21G
 ****
 27  28  29  32  34  39  40  41  42  43  44  45  46  47  48  49 0
 3-21G
 ****


