%nproc=1
%NoSave
%Mem=1900MB
#P OB98/GEN NMR

erre ene a

0 1
  C     -480.181    1089.835    -626.659
  O     -479.280    1090.216    -627.680
  H     -481.199    1089.979    -627.006
  H     -480.026    1090.477    -625.777
  H     -480.040    1088.788    -626.382
  P     -477.729    1089.915    -627.431
  C     -477.235    1088.735    -629.724
  O     -477.048    1089.851    -628.888
  C     -477.088    1089.130    -631.196
  O     -478.322    1089.716    -631.661
  C     -475.955    1090.133    -631.462
  O     -475.352    1089.837    -632.722
  C     -476.684    1091.473    -631.551
  O     -475.950    1092.438    -632.293
  C     -478.018    1091.042    -632.192
  N     -479.105    1091.977    -631.943
  C     -480.158    1091.976    -632.888
  O     -480.111    1091.209    -633.855
  N     -481.183    1092.880    -632.734
  C     -481.154    1093.733    -631.776
  N     -482.196    1094.599    -631.670
  C     -480.061    1093.800    -630.777
  C     -479.071    1092.896    -630.916
  O     -477.763    1088.387    -626.958
  O     -477.070    1090.849    -626.454
  H     -475.931    1092.133    -633.232
  H     -478.331    1087.827    -627.512
  H     -480.070    1094.558    -629.985
  H     -478.236    1092.871    -630.250
  H     -477.882    1090.915    -633.275
  H     -476.862    1091.868    -630.543
  H     -475.191    1090.119    -630.661
  H     -476.921    1088.208    -631.794
  H     -482.925    1094.532    -632.384
  H     -478.232    1088.302    -629.573
  H     -482.248    1095.340    -631.000
  H     -476.486    1087.969    -629.453
  P     -473.944    1090.504    -633.110
  C     -472.383    1088.435    -633.103
  O     -473.043    1089.409    -633.880
  O     -473.269    1091.225    -631.992
  O     -474.362    1091.521    -634.281
  H     -473.859    1092.351    -634.142
  H     -471.828    1087.783    -633.745
  H     -473.105    1087.867    -632.555
  H     -471.715    1088.916    -632.420

 6  7  8  9  10  11  12  13  14  15  16  26  30  31  32  33  35 0
 6-311+G(2d,p)
 ****
 37  38 0
 6-311+G(2d,p)
 ****
 1  2  3  4  5  17  18  19  20  21  22  23  24  25 0
 3-21G
 ****
 27  28  29  34  36  39  40  41  42  43  44  45  46 0
 3-21G
 ****


