%nproc=1
%NoSave
%Mem=1900MB
#P OB98/GEN NMR

erre ene a

0 1
  C     -242.161      69.199     456.073
  O     -242.711      68.287     457.038
  P     -244.046      67.446     456.742
  C     -246.512      67.332     457.457
  O     -245.299      68.071     457.541
  C     -247.761      68.224     457.497
  O     -247.947      68.808     458.812
  C     -247.762      69.388     456.492
  O     -249.130      69.608     456.138
  C     -247.243      70.540     457.340
  O     -247.531      71.816     456.797
  C     -247.939      70.244     458.666
  N     -247.342      74.608     461.291
  C     -248.227      74.250     460.329
  N     -248.347      73.063     459.709
  C     -247.462      72.169     460.198
  C     -246.512      72.383     461.182
  C     -246.466      73.672     461.735
  N     -245.543      74.063     462.685
  N     -245.767      71.242     461.401
  C     -246.248      70.358     460.548
  N     -247.284      70.870     459.801
  O     -243.890      65.971     456.927
  O     -244.385      67.772     455.210
  H     -247.059      72.483     457.328
  H     -244.604      66.939     454.748
  H     -248.919      75.027     460.013
  H     -245.881      69.352     460.416
  H     -248.983      70.585     458.649
  H     -246.147      70.453     457.429
  H     -247.148      69.198     455.608
  H     -248.631      67.571     457.323
  H     -246.546      66.625     458.294
  H     -245.523      75.031     462.953
  H     -244.798      73.424     462.932
  H     -246.506      66.748     456.529
  P     -249.609      69.617     454.612
  C     -250.100      71.418     452.855
  O     -249.872      71.152     454.225
  O     -250.752      68.698     454.300
  O     -248.305      69.239     453.769
  H     -248.564      68.936     452.881
  H     -249.157      71.378     452.305
  H     -250.535      72.414     452.752
  H     -250.801      70.690     452.425
  H     -241.277      69.650     456.472
  H     -242.880      69.959     455.850
  H     -241.917      68.666     455.178

 3  4  5  6  7  8  9  10  11  12  22  25  29  30  31  32 0
 6-311+G(2d,p)
 ****
 33  36  37 0
 6-311+G(2d,p)
 ****
 1  2  13  14  15  16  17  18  19  20  21  23  24  26 0
 3-21G
 ****
 27  28  34  35  38  39  40  41  42  43  44  45  46  47  48 0
 3-21G
 ****


