%nproc=1
%NoSave
%Mem=1900MB
#P OB98/GEN NMR

erre ene a

0 1
  C     -119.121      52.011     -41.400
  O     -118.698      51.119     -42.414
  P     -117.254      51.266     -43.083
  C     -117.293      48.788     -43.725
  O     -117.116      50.117     -44.196
  C     -117.140      47.772     -44.857
  O     -118.326      47.815     -45.696
  C     -115.927      48.006     -45.768
  O     -115.467      46.715     -46.181
  C     -116.535      48.733     -46.955
  O     -115.733      48.650     -48.127
  C     -117.879      48.018     -47.053
  N     -121.394      47.872     -50.761
  C     -120.531      46.941     -50.303
  N     -119.607      47.064     -49.330
  C     -119.627      48.303     -48.810
  C     -120.427      49.366     -49.194
  C     -121.363      49.111     -50.213
  N     -122.274      50.039     -50.667
  N     -120.111      50.496     -48.461
  C     -119.142      50.116     -47.655
  N     -118.862      48.785     -47.785
  O     -116.112      51.343     -42.125
  O     -117.365      52.603     -43.954
  H     -114.958      49.230     -48.012
  H     -116.873      53.326     -43.516
  H     -120.595      45.965     -50.778
  H     -118.612      50.758     -46.965
  H     -117.790      47.036     -47.531
  H     -116.665      49.794     -46.709
  H     -115.119      48.573     -45.296
  H     -117.098      46.770     -44.413
  H     -118.300      48.709     -43.305
  H     -122.983      49.711     -51.303
  H     -122.452      50.869     -50.104
  H     -116.570      48.577     -42.929
  P     -114.015      46.204     -45.735
  C     -114.986      43.867     -45.358
  O     -113.983      44.628     -46.006
  O     -113.579      46.629     -44.372
  O     -113.047      46.788     -46.873
  H     -112.124      46.774     -46.554
  H     -114.692      43.686     -44.320
  H     -115.090      42.906     -45.871
  H     -115.948      44.387     -45.377
  H     -120.109      51.749     -41.084
  H     -119.122      53.010     -41.782
  H     -118.452      51.948     -40.568

 3  4  5  6  7  8  9  10  11  12  22  25  29  30  31  32 0
 6-311+G(2d,p)
 ****
 33  36  37 0
 6-311+G(2d,p)
 ****
 1  2  13  14  15  16  17  18  19  20  21  23  24  26 0
 3-21G
 ****
 27  28  34  35  38  39  40  41  42  43  44  45  46  47  48 0
 3-21G
 ****


