%nproc=1
%NoSave
%Mem=1900MB
#P OB98/GEN NMR

erre ene a

0 1
  C     -326.841      77.314     163.154
  O     -327.743      76.363     163.734
  P     -329.025      76.815     164.589
  C     -330.608      76.976     162.561
  O     -330.352      76.350     163.813
  C     -331.364      76.048     161.605
  O     -330.534      74.941     161.205
  C     -332.634      75.436     162.191
  O     -333.695      76.371     162.171
  C     -332.824      74.224     161.282
  O     -333.453      74.616     160.048
  C     -331.374      73.785     161.032
  N     -330.562      68.747     161.366
  C     -330.958      69.531     160.340
  N     -331.159      70.867     160.328
  C     -330.879      71.396     161.535
  C     -330.467      70.718     162.675
  C     -330.311      69.327     162.561
  N     -329.921      68.529     163.613
  N     -330.305      71.594     163.728
  C     -330.593      72.778     163.226
  N     -330.945      72.712     161.906
  O     -329.023      78.256     164.982
  O     -329.002      75.874     165.883
  H     -334.373      74.860     160.258
  H     -329.429      76.334     166.630
  H     -331.141      69.017     159.397
  H     -330.560      73.711     163.776
  H     -331.231      73.445     159.997
  H     -333.448      73.450     161.737
  H     -332.443      75.095     163.215
  H     -331.599      76.622     160.699
  H     -329.647      77.258     162.115
  H     -329.863      67.535     163.461
  H     -329.777      68.950     164.519
  H     -331.196      77.885     162.738
  P     -334.884      76.257     163.237
  C     -334.655      78.760     163.744
  O     -335.536      77.714     163.376
  O     -334.535      75.592     164.526
  O     -336.019      75.438     162.450
  H     -336.548      74.931     163.090
  H     -334.486      78.732     164.824
  H     -335.118      79.716     163.481
  H     -333.700      78.670     163.221
  H     -326.064      76.796     162.632
  H     -326.411      77.916     163.927
  H     -327.374      77.940     162.470

 3  4  5  6  7  8  9  10  11  12  22  25  29  30  31  32 0
 6-311+G(2d,p)
 ****
 33  36  37 0
 6-311+G(2d,p)
 ****
 1  2  13  14  15  16  17  18  19  20  21  23  24  26 0
 3-21G
 ****
 27  28  34  35  38  39  40  41  42  43  44  45  46  47  48 0
 3-21G
 ****


