%nproc=1
%NoSave
%Mem=1900MB
#P OB98/GEN NMR

erre ene a

0 1
  C        0.151     293.286     600.831
  O       -0.190     293.056     602.190
  P       -1.281     294.033     602.860
  C       -1.201     296.155     604.415
  O       -0.495     295.133     603.717
  C       -0.227     297.120     605.108
  O        0.447     296.409     606.172
  C        0.876     297.676     604.229
  O        1.415     298.848     604.856
  C        1.912     296.567     604.273
  O        3.197     297.027     603.872
  C        1.797     296.078     605.739
  N        2.049     294.627     605.907
  C        2.605     294.189     607.105
  O        2.904     294.920     608.050
  N        2.856     292.841     607.200
  C        2.579     291.903     606.224
  O        2.891     290.726     606.325
  C        1.861     292.407     605.047
  C        1.652     293.718     604.935
  O       -1.998     293.117     603.955
  O       -2.254     294.598     601.871
  H        3.290     297.949     604.231
  H       -2.874     292.848     603.655
  H        3.311     292.516     608.027
  H        1.555     291.701     604.287
  H        1.136     294.109     604.057
  H        2.513     296.610     606.394
  H        1.616     295.767     603.591
  H        0.573     297.908     603.195
  H       -0.808     297.932     605.572
  H       -1.874     295.690     605.156
  H       -1.836     296.711     603.708
  P        1.484     300.198     603.990
  C        3.254     301.398     602.548
  O        2.959     300.251     603.335
  O        1.038     301.444     604.686
  O        0.546     299.872     602.721
  H        0.279     300.698     602.290
  H        4.327     301.585     602.613
  H        2.717     302.296     602.913
  H        2.978     301.207     601.508
  H        0.881     292.568     600.520
  H        0.553     294.272     600.726
  H       -0.724     293.191     600.223

 3  4  5  6  7  8  9  10  11  12  13  23  28  29  30  31  32 0
 6-311+G(2d,p)
 ****
 33  34 0
 6-311+G(2d,p)
 ****
 1  2  14  15  16  17  18  19  20  21  22  24  25  26  27 0
 3-21G
 ****
 35  36  37  38  39  40  41  42  43  44  45 0
 3-21G
 ****


