%nproc=1
%NoSave
%Mem=1900MB
#P OB98/GEN NMR

erre ene a

0 1
  C      -91.752      41.691     101.217
  O      -92.968      41.836     100.511
  P      -93.904      43.122     100.711
  C      -95.648      41.913     102.167
  O      -94.639      42.911     102.125
  C      -96.716      42.242     103.208
  O      -97.902      41.439     102.961
  C      -96.288      41.996     104.664
  O      -96.941      42.998     105.449
  C      -96.876      40.629     104.949
  O      -96.995      40.363     106.342
  C      -98.197      40.713     104.174
  N      -98.763      39.395     103.905
  C      -99.271      38.690     105.001
  O      -99.164      39.154     106.141
  N      -99.840      37.462     104.793
  C      -99.805      36.933     103.610
  N     -100.392      35.712     103.461
  C      -99.169      37.585     102.450
  C      -98.680      38.811     102.665
  O      -94.816      43.428      99.571
  O      -92.868      44.297     101.034
  H      -97.441      39.495     106.455
  H      -92.425      44.608     100.203
  H      -99.111      37.084     101.497
  H      -98.196      39.365     101.875
  H      -98.937      41.301     104.735
  H      -96.233      39.851     104.516
  H      -95.205      42.031     104.813
  H      -97.004      43.294     103.077
  H     -100.831      35.308     104.278
  H      -95.173      40.964     102.436
  H     -100.493      35.253     102.568
  H      -96.096      41.790     101.174
  P      -96.115      43.946     106.445
  C      -96.295      42.494     108.544
  O      -95.434      42.998     107.540
  O      -96.882      45.101     107.002
  O      -94.867      44.446     105.570
  H      -94.457      45.220     106.002
  H      -95.802      41.658     109.049
  H      -97.239      42.140     108.114
  H      -96.504      43.281     109.275
  H      -91.286      40.769     100.939
  H      -91.948      41.689     102.269
  H      -91.101      42.506     100.978

 3  4  5  6  7  8  9  10  11  12  13  23  27  28  29  30  32 0
 6-311+G(2d,p)
 ****
 34  35 0
 6-311+G(2d,p)
 ****
 1  2  14  15  16  17  18  19  20  21  22  24  25  26 0
 3-21G
 ****
 31  33  36  37  38  39  40  41  42  43  44  45  46 0
 3-21G
 ****


