%nproc=1
%NoSave
%Mem=1900MB
#P OB98/GEN NMR

erre ene a

0 1
  C      160.598    -899.450     719.741
  O      159.840    -899.420     720.942
  H      161.536    -900.000     719.947
  H      160.847    -898.430     719.438
  H      160.058    -899.960     718.949
  P      158.378    -898.770     720.912
  C      159.483    -896.680     721.947
  O      158.575    -897.170     720.957
  C      159.526    -895.160     721.914
  O      158.323    -894.640     722.544
  C      160.732    -894.560     722.647
  O      161.194    -893.420     721.938
  C      160.175    -894.120     723.988
  O      160.896    -893.060     724.578
  C      158.737    -893.740     723.599
  N      156.244    -891.040     727.066
  C      157.025    -890.620     725.994
  N      157.186    -889.290     725.846
  N      157.575    -891.450     725.160
  C      157.334    -892.740     725.417
  C      156.586    -893.290     726.439
  C      155.963    -892.360     727.374
  O      155.278    -892.660     728.346
  N      156.577    -894.650     726.386
  C      157.339    -894.950     725.342
  N      157.825    -893.830     724.728
  O      157.413    -899.300     721.924
  O      157.873    -899.030     719.410
  H      161.822    -893.360     724.700
  H      157.259    -899.790     719.382
  H      155.838    -890.370     727.688
  H      157.562    -895.940     725.005
  H      158.672    -892.710     723.219
  H      160.156    -894.980     724.688
  H      156.755    -888.600     726.451
  H      161.556    -895.300     722.783
  H      157.741    -888.960     725.052
  H      159.513    -894.840     720.869
  H      160.478    -897.090     721.742
  H      159.150    -897.050     722.940
  P      162.472    -893.580     720.969
  C      163.873    -892.090     722.502
  O      163.801    -893.340     721.825
  O      162.387    -892.840     719.647
  O      162.506    -895.190     720.694
  H      162.875    -895.350     719.810
  H      164.795    -892.029     723.042
  H      163.054    -892.007     723.185
  H      163.825    -891.294     721.788

 6  7  8  9  10  11  12  13  14  15  26  29  33  34 0
 6-311+G(2d,p)
 ****
 36  38  39  40  41 0
 6-311+G(2d,p)
 ****
 1  2  3  4  5  16  17  18  19  20  21  22  23  24  25 0
 3-21G
 ****
 27  28  30  31  32  35  37  42  43  44  45  46  47 0
 3-21G
 ****
 48  49 0
 3-21G
 ****


