%nproc=1
%NoSave
%Mem=1900MB
#P OB98/GEN NMR

erre ene a

0 1
  C     -128.867     711.838    -552.856
  O     -128.561     713.226    -552.926
  P     -129.586     714.192    -553.723
  C     -130.569     715.168    -551.498
  O     -130.820     714.522    -552.743
  C     -131.832     715.175    -550.628
  O     -132.183     713.842    -550.194
  C     -131.667     715.986    -549.333
  O     -131.881     717.378    -549.579
  C     -132.827     715.421    -548.492
  O     -134.051     716.002    -548.903
  C     -132.791     713.930    -548.879
  N     -132.972     711.275    -544.497
  C     -133.894     712.048    -545.125
  N     -133.773     712.733    -546.282
  C     -132.542     712.553    -546.797
  C     -131.490     711.811    -546.267
  C     -131.747     711.150    -545.059
  N     -130.800     710.380    -544.418
  N     -130.380     711.889    -547.083
  C     -130.737     712.653    -548.088
  N     -132.038     713.087    -547.957
  O     -130.217     713.215    -554.820
  O     -128.936     715.381    -554.352
  H     -134.050     716.926    -548.606
  H     -130.417     713.707    -555.622
  H     -134.880     712.109    -544.633
  H     -130.100     712.902    -548.937
  H     -133.798     713.498    -548.960
  H     -132.691     715.622    -547.427
  H     -130.705     715.772    -548.851
  H     -132.662     715.588    -551.222
  H     -130.226     716.188    -551.686
  H     -131.073     709.907    -543.574
  H     -129.896     710.254    -544.844
  H     -129.737     714.652    -550.999
  P     -130.613     718.213    -550.062
  C     -131.583     718.764    -552.427
  O     -130.595     718.091    -551.665
  O     -129.353     717.340    -549.583
  O     -130.553     719.612    -549.530
  H     -128.591     717.905    -549.401
  H     -131.260     718.813    -553.486
  H     -131.736     719.784    -552.049
  H     -132.543     718.214    -552.372
  H     -128.104     711.332    -552.302
  H     -128.917     711.433    -553.845
  H     -129.810     711.705    -552.368

 3  4  5  6  7  8  9  10  11  12  22  25  29  30  31  32 0
 6-311+G(2d,p)
 ****
 33  36  37 0
 6-311+G(2d,p)
 ****
 1  2  13  14  15  16  17  18  19  20  21  23  24  26 0
 3-21G
 ****
 27  28  34  35  38  39  40  41  42  43  44  45  46  47  48 0
 3-21G
 ****


