%nproc=1
%NoSave
%Mem=1900MB
#P OB98/GEN NMR

erre ene a

0 1
  C     -304.248      -6.719      63.944
  O     -304.978      -5.603      63.470
  P     -306.349      -5.804      62.672
  C     -307.047      -6.450      60.290
  O     -305.990      -6.445      61.241
  C     -306.687      -7.282      59.064
  O     -306.708      -8.692      59.418
  C     -307.632      -7.102      57.862
  O     -306.830      -7.230      56.682
  C     -308.560      -8.298      57.983
  O     -309.213      -8.619      56.760
  C     -307.574      -9.358      58.476
  N     -308.887     -14.282      58.024
  C     -308.276     -13.432      57.171
  N     -307.985     -12.126      57.355
  C     -308.393     -11.715      58.567
  C     -309.061     -12.455      59.530
  C     -309.295     -13.810      59.228
  N     -309.889     -14.697      60.100
  N     -309.366     -11.663      60.623
  C     -308.893     -10.471      60.319
  N     -308.238     -10.472      59.116
  O     -307.233      -4.601      62.606
  O     -307.074      -7.011      63.437
  H     -308.580      -8.494      56.028
  H     -307.814      -6.666      63.969
  H     -307.970     -13.859      56.218
  H     -308.991      -9.581      60.927
  H     -306.957      -9.754      57.662
  H     -309.332      -8.092      58.737
  H     -308.172      -6.149      57.860
  H     -305.653      -7.040      58.773
  H     -307.235      -5.414      59.987
  H     -309.889     -15.671      59.834
  H     -309.955     -14.449      61.085
  H     -307.962      -6.843      60.757
  P     -307.374      -6.670      55.282
  C     -309.256      -7.320      53.675
  O     -308.768      -7.406      55.001
  O     -306.390      -6.709      54.154
  O     -307.819      -5.168      55.627
  H     -307.898      -4.653      54.807
  H     -309.747      -6.350      53.527
  H     -309.988      -8.116      53.514
  H     -308.447      -7.431      52.945
  H     -303.367      -6.381      64.448
  H     -303.970      -7.340      63.118
  H     -304.855      -7.280      64.624

 3  4  5  6  7  8  9  10  11  12  22  25  29  30  31  32 0
 6-311+G(2d,p)
 ****
 33  36  37 0
 6-311+G(2d,p)
 ****
 1  2  13  14  15  16  17  18  19  20  21  23  24  26 0
 3-21G
 ****
 27  28  34  35  38  39  40  41  42  43  44  45  46  47  48 0
 3-21G
 ****


