%nproc=1
%NoSave
%Mem=1900MB
#P OB98/GEN NMR

erre ene a

0 1
  C     -277.152    -483.885    -301.180
  O     -275.851    -483.333    -301.198
  H     -277.239    -484.596    -302.004
  H     -277.904    -483.103    -301.309
  H     -277.325    -484.419    -300.241
  P     -275.501    -482.170    -300.152
  C     -273.469    -483.534    -299.311
  O     -274.668    -482.855    -298.964
  C     -272.249    -482.829    -298.701
  O     -272.197    -483.121    -297.276
  C     -270.904    -483.280    -299.308
  O     -270.007    -482.166    -299.227
  C     -270.492    -484.373    -298.342
  O     -269.142    -484.715    -298.497
  C     -270.919    -483.743    -297.012
  N     -270.998    -484.712    -295.929
  C     -269.989    -484.635    -294.959
  O     -269.098    -483.793    -295.055
  N     -270.004    -485.534    -293.923
  C     -270.899    -486.473    -293.899
  N     -270.850    -487.342    -292.850
  C     -271.948    -486.621    -294.934
  C     -271.936    -485.713    -295.909
  O     -276.651    -481.328    -299.708
  O     -274.395    -481.290    -300.907
  H     -268.972    -485.093    -299.387
  H     -274.795    -480.459    -301.222
  H     -272.660    -487.431    -294.875
  H     -272.661    -485.740    -296.716
  H     -270.222    -482.943    -296.718
  H     -271.070    -485.287    -298.523
  H     -270.999    -483.616    -300.346
  H     -272.382    -481.748    -298.801
  H     -270.113    -487.206    -292.169
  H     -273.394    -483.536    -300.403
  H     -271.480    -488.121    -292.738
  H     -273.506    -484.572    -298.957
  P     -269.492    -481.365    -300.521
  C     -270.703    -479.105    -300.218
  O     -270.613    -480.312    -300.968
  O     -269.002    -482.245    -301.624
  O     -268.299    -480.433    -299.984
  H     -267.648    -480.305    -300.697
  H     -271.486    -478.494    -300.617
  H     -269.774    -478.578    -300.278
  H     -270.917    -479.336    -299.195

 6  7  8  9  10  11  12  13  14  15  16  26  30  31  32  33  35 0
 6-311+G(2d,p)
 ****
 37  38 0
 6-311+G(2d,p)
 ****
 1  2  3  4  5  17  18  19  20  21  22  23  24  25 0
 3-21G
 ****
 27  28  29  34  36  39  40  41  42  43  44  45  46 0
 3-21G
 ****


