%nproc=1
%NoSave
%Mem=1900MB
#P OB98/GEN NMR

erre ene a

0 1
  C     -418.428    -243.688    -245.835
  O     -419.556    -244.130    -246.568
  H     -418.370    -242.597    -245.858
  H     -418.535    -244.011    -244.795
  H     -417.516    -244.127    -246.248
  P     -419.593    -243.769    -248.131
  C     -418.118    -245.822    -248.736
  O     -419.361    -245.155    -248.905
  C     -418.314    -247.324    -248.893
  O     -418.948    -247.867    -247.716
  C     -419.205    -247.722    -250.063
  O     -418.504    -247.725    -251.293
  C     -419.594    -249.132    -249.650
  O     -418.502    -250.034    -249.907
  C     -419.805    -248.968    -248.139
  N     -424.667    -250.543    -248.467
  C     -423.519    -251.047    -248.961
  N     -422.260    -250.570    -248.834
  C     -422.261    -249.442    -248.105
  C     -423.351    -248.799    -247.542
  C     -424.604    -249.402    -247.740
  N     -425.781    -248.878    -247.252
  N     -422.959    -247.643    -246.900
  C     -421.650    -247.606    -247.042
  N     -421.181    -248.666    -247.773
  O     -418.213    -242.986    -248.367
  O     -420.781    -242.988    -248.586
  H     -418.303    -249.963    -250.863
  H     -418.274    -242.446    -249.179
  H     -423.618    -251.966    -249.538
  H     -420.999    -246.840    -246.636
  H     -419.506    -249.857    -247.573
  H     -420.466    -249.513    -250.191
  H     -420.108    -247.099    -250.114
  H     -417.323    -247.791    -248.978
  H     -417.732    -245.606    -247.733
  H     -426.633    -249.280    -247.602
  H     -425.764    -247.953    -246.844
  H     -417.403    -245.452    -249.480
  P     -419.283    -247.196    -252.591
  C     -418.448    -244.751    -252.276
  O     -418.472    -245.914    -253.102
  O     -420.622    -246.564    -251.982
  O     -419.567    -248.237    -253.619
  H     -421.348    -246.583    -252.631
  H     -417.870    -243.987    -252.752
  H     -418.009    -244.994    -251.331
  H     -419.447    -244.400    -252.125

 6  7  8  9  10  11  12  13  14  15  25  28  32  33  34  35 0
 6-311+G(2d,p)
 ****
 36  39  40 0
 6-311+G(2d,p)
 ****
 1  2  3  4  5  16  17  18  19  20  21  22  23  24 0
 3-21G
 ****
 26  27  29  30  31  37  38  41  42  43  44  45  46  47 0
 3-21G
 ****
 48 0
 3-21G
 ****


