%nproc=1
%NoSave
%Mem=1900MB
#P OB98/GEN NMR

erre ene a

0 1
  C      346.092    -118.226     -74.671
  O      346.440    -117.215     -75.628
  P      345.660    -115.818     -75.740
  C      346.377    -114.561     -73.605
  O      346.517    -114.672     -75.018
  C      346.290    -113.098     -73.159
  O      345.680    -112.998     -71.857
  C      347.631    -112.386     -73.034
  O      348.152    -112.044     -74.305
  C      347.252    -111.198     -72.154
  O      346.673    -110.141     -72.940
  C      346.199    -111.818     -71.213
  N      346.740    -112.121     -69.896
  C      346.982    -111.035     -69.051
  O      346.793    -109.884     -69.448
  N      347.454    -111.278     -67.782
  C      347.731    -112.492     -67.421
  N      348.191    -112.670     -66.151
  C      347.580    -113.655     -68.310
  C      347.082    -113.401     -69.519
  O      344.235    -115.882     -75.297
  O      345.743    -115.420     -77.291
  H      347.354    -109.870     -73.584
  H      344.947    -114.913     -77.533
  H      347.851    -114.648     -67.980
  H      346.929    -114.202     -70.234
  H      345.345    -111.140     -71.093
  H      348.110    -110.772     -71.628
  H      348.339    -113.026     -72.491
  H      345.642    -112.570     -73.872
  H      348.278    -111.851     -65.566
  H      347.251    -115.030     -73.136
  H      348.435    -113.572     -65.770
  H      345.479    -115.106     -73.296
  P      349.674    -112.384     -74.661
  C      349.936    -114.936     -74.711
  O      349.688    -113.766     -75.470
  O      350.636    -112.303     -73.522
  O      350.045    -111.312     -75.796
  H      350.993    -111.093     -75.727
  H      349.534    -115.798     -75.253
  H      349.460    -114.879     -73.726
  H      351.015    -115.066     -74.587
  H      346.747    -119.064     -74.784
  H      345.082    -118.539     -74.834
  H      346.187    -117.829     -73.682

 3  4  5  6  7  8  9  10  11  12  13  23  27  28  29  30  32 0
 6-311+G(2d,p)
 ****
 34  35 0
 6-311+G(2d,p)
 ****
 1  2  14  15  16  17  18  19  20  21  22  24  25  26 0
 3-21G
 ****
 31  33  36  37  38  39  40  41  42  43  44  45  46 0
 3-21G
 ****


