%nproc=1
%NoSave
%Mem=1900MB
#P OB98/GEN NMR

erre ene a

0 1
  C     -401.974     104.205      60.049
  O     -401.223     103.658      58.984
  H     -402.421     103.385      60.622
  H     -402.774     104.852      59.678
  H     -401.317     104.774      60.719
  P     -400.680     104.661      57.853
  C     -402.533     103.869      56.233
  O     -401.946     104.978      56.912
  C     -403.836     104.273      55.539
  O     -404.818     104.675      56.520
  C     -403.691     105.475      54.615
  O     -402.938     105.219      53.448
  C     -405.125     105.971      54.490
  O     -405.867     105.309      53.469
  C     -405.708     105.608      55.879
  N     -405.939     106.791      56.701
  C     -406.965     107.629      56.283
  O     -407.644     107.422      55.275
  N     -407.173     108.749      57.044
  C     -406.433     109.125      58.125
  O     -406.640     110.165      58.743
  C     -405.339     108.213      58.507
  C     -405.143     107.101      57.786
  O     -399.470     104.195      57.100
  O     -400.458     106.036      58.639
  H     -406.791     105.620      53.540
  H     -399.882     106.652      58.124
  H     -407.918     109.363      56.767
  H     -404.730     108.479      59.356
  H     -404.342     106.415      58.046
  H     -406.668     105.091      55.758
  H     -405.161     107.040      54.270
  H     -403.143     106.254      55.159
  H     -404.226     103.405      54.998
  H     -402.752     103.099      56.983
  H     -401.823     103.465      55.506
  P     -402.079     106.336      52.695
  C     -403.997     106.829      51.012
  O     -403.096     107.357      51.980
  O     -400.882     105.863      51.927
  O     -401.533     107.209      53.935
  H     -400.644     107.531      53.705
  H     -404.607     107.618      50.625
  H     -404.620     106.089      51.470
  H     -403.442     106.383      50.214

 6  7  8  9  10  11  12  13  14  15  16  26  31  32  33  34  35 0
 6-311+G(2d,p)
 ****
 36  37 0
 6-311+G(2d,p)
 ****
 1  2  3  4  5  17  18  19  20  21  22  23  24  25 0
 3-21G
 ****
 27  28  29  30  38  39  40  41  42  43  44  45 0
 3-21G
 ****


