%nproc=1
%NoSave
%Mem=1900MB
#P OB98/GEN NMR

erre ene a

0 1
  C      586.906    -261.167     863.621
  O      585.726    -260.379     863.591
  P      585.851    -258.835     863.179
  C      587.413    -256.853     863.843
  O      586.953    -258.174     864.118
  C      587.654    -256.092     865.163
  O      588.663    -256.764     865.952
  C      588.166    -254.670     864.962
  O      587.092    -253.794     864.608
  C      588.783    -254.374     866.321
  O      587.774    -253.944     867.258
  C      589.358    -255.753     866.718
  N      590.809    -255.820     866.570
  C      591.559    -255.161     867.510
  O      591.063    -254.513     868.442
  N      592.915    -255.235     867.358
  C      593.570    -255.846     866.320
  O      594.800    -255.821     866.213
  C      592.717    -256.516     865.331
  C      591.402    -256.474     865.472
  O      584.484    -258.186     863.669
  O      586.094    -258.612     861.721
  H      587.180    -253.339     866.775
  H      584.189    -257.486     863.029
  H      593.487    -254.782     868.043
  H      593.216    -257.013     864.508
  H      590.740    -256.940     864.755
  H      589.113    -255.954     867.771
  H      589.522    -253.576     866.268
  H      588.962    -254.675     864.199
  H      586.711    -256.092     865.735
  H      586.669    -256.325     863.253
  H      588.356    -256.927     863.260
  P      587.512    -252.350     864.014
  C      588.950    -250.422     865.049
  O      588.129    -251.554     865.294
  O      586.080    -251.694     863.744
  O      588.370    -252.445     862.794
  H      585.426    -252.009     864.404
  H      588.607    -249.841     864.185
  H      589.980    -250.735     864.907
  H      588.902    -249.773     865.937
  H      586.660    -262.167     863.912
  H      587.595    -260.750     864.325
  H      587.352    -261.178     862.649

 3  4  5  6  7  8  9  10  11  12  13  23  28  29  30  31  32 0
 6-311+G(2d,p)
 ****
 33  34 0
 6-311+G(2d,p)
 ****
 1  2  14  15  16  17  18  19  20  21  22  24  25  26 0
 3-21G
 ****
 27  35  36  37  38  39  40  41  42  43  44  45 0
 3-21G
 ****


