%nproc=1
%NoSave
%Mem=1900MB
#P OB98/GEN NMR

erre ene a

0 1
  C     -372.289    -234.538    -350.913
  O     -372.805    -234.889    -352.187
  H     -371.440    -233.856    -351.058
  H     -371.943    -235.422    -350.377
  H     -373.051    -234.019    -350.330
  P     -373.891    -236.067    -352.260
  C     -372.511    -237.281    -354.076
  O     -373.081    -237.364    -352.774
  C     -371.588    -238.473    -354.347
  O     -370.389    -238.371    -353.543
  C     -372.200    -239.821    -353.983
  O     -373.260    -240.219    -354.825
  C     -370.973    -240.715    -353.845
  O     -370.537    -241.276    -355.085
  C     -369.907    -239.710    -353.321
  N     -369.578    -239.950    -351.925
  C     -368.888    -241.129    -351.659
  O     -368.593    -241.961    -352.521
  N     -368.593    -241.362    -350.336
  C     -368.955    -240.569    -349.288
  O     -368.691    -240.860    -348.123
  C     -369.703    -239.350    -349.626
  C     -369.974    -239.097    -350.913
  O     -375.128    -235.771    -353.056
  O     -374.185    -236.412    -350.723
  H     -369.818    -241.902    -354.879
  H     -375.021    -236.934    -350.629
  H     -368.086    -242.212    -350.126
  H     -370.001    -238.696    -348.816
  H     -370.527    -238.205    -351.188
  H     -368.986    -239.809    -353.915
  H     -371.165    -241.548    -353.156
  H     -372.631    -239.733    -352.980
  H     -371.287    -238.450    -355.409
  H     -371.925    -236.358    -354.129
  H     -373.307    -237.239    -354.829
  P     -374.300    -241.379    -354.450
  C     -373.869    -242.857    -356.544
  O     -373.791    -242.749    -355.126
  O     -375.749    -241.039    -354.521
  O     -373.944    -241.619    -352.884
  H     -374.774    -241.858    -352.433
  H     -373.499    -243.813    -356.850
  H     -373.279    -242.086    -356.993
  H     -374.888    -242.753    -356.854

 6  7  8  9  10  11  12  13  14  15  16  26  31  32  33  34  35 0
 6-311+G(2d,p)
 ****
 36  37 0
 6-311+G(2d,p)
 ****
 1  2  3  4  5  17  18  19  20  21  22  23  24  25 0
 3-21G
 ****
 27  28  29  30  38  39  40  41  42  43  44  45 0
 3-21G
 ****


