%nproc=1
%NoSave
%Mem=1900MB
#P OB98/GEN NMR

erre ene a

0 1
  C       56.355     661.890    -379.949
  O       56.658     660.534    -379.713
  H       56.844     662.199    -380.876
  H       56.736     662.514    -379.136
  H       55.278     662.031    -380.056
  P       56.104     659.822    -378.385
  C       54.250     658.729    -379.784
  O       54.538     659.561    -378.669
  C       52.744     658.645    -380.032
  O       52.135     657.769    -379.044
  C       52.026     660.003    -379.946
  O       51.145     660.157    -381.061
  C       51.212     659.894    -378.665
  O       50.080     660.760    -378.650
  C       50.904     658.396    -378.642
  N       50.450     657.947    -377.333
  C       49.110     658.198    -377.023
  O       48.380     658.759    -377.843
  N       48.643     657.855    -375.785
  C       49.455     657.352    -374.903
  N       48.933     657.061    -373.681
  C       50.883     657.096    -375.177
  C       51.307     657.411    -376.402
  O       56.403     660.549    -377.118
  O       56.719     658.344    -378.423
  H       49.775     660.859    -377.720
  H       56.723     657.978    -377.509
  H       51.523     656.681    -374.414
  H       52.342     657.261    -376.696
  H       50.132     658.142    -379.384
  H       51.845     660.156    -377.810
  H       52.711     660.846    -379.915
  H       52.577     658.169    -381.006
  H       47.949     657.261    -373.539
  H       54.659     657.732    -379.595
  H       49.472     656.690    -372.916
  H       54.734     659.156    -380.669
  P       51.572     661.254    -382.152
  C       51.855     659.509    -384.054
  O       52.466     660.523    -383.268
  O       52.616     662.177    -381.361
  O       50.421     662.050    -382.678
  H       52.217     663.053    -381.197
  H       52.569     659.117    -384.748
  H       51.027     659.923    -384.590
  H       51.510     658.723    -383.416

 6  7  8  9  10  11  12  13  14  15  16  26  30  31  32  33  35 0
 6-311+G(2d,p)
 ****
 37  38 0
 6-311+G(2d,p)
 ****
 1  2  3  4  5  17  18  19  20  21  22  23  24  25 0
 3-21G
 ****
 27  28  29  34  36  39  40  41  42  43  44  45  46 0
 3-21G
 ****


