%nproc=1
%NoSave
%Mem=1900MB
#P OB98/GEN NMR

erre ene a

0 1
  C     -133.364    -196.420     -22.397
  O     -133.465    -195.109     -21.870
  H     -132.787    -197.036     -21.701
  H     -132.845    -196.394     -23.359
  H     -134.357    -196.860     -22.520
  P     -134.468    -194.115     -22.624
  C     -137.080    -194.073     -22.873
  O     -135.899    -194.846     -22.700
  C     -138.056    -194.804     -23.790
  O     -137.498    -194.963     -25.109
  C     -138.372    -196.226     -23.359
  O     -139.209    -196.276     -22.224
  C     -139.031    -196.765     -24.622
  O     -140.423    -196.433     -24.678
  C     -138.247    -196.031     -25.739
  N     -137.396    -196.939     -26.485
  C     -137.847    -197.258     -27.774
  O     -138.888    -196.759     -28.205
  N     -137.126    -198.157     -28.518
  C     -136.069    -198.711     -28.014
  N     -135.421    -199.619     -28.791
  C     -135.561    -198.405     -26.661
  C     -136.268    -197.519     -25.957
  O     -133.945    -194.179     -24.134
  O     -134.530    -192.738     -22.056
  H     -140.477    -195.458     -24.607
  H     -133.815    -195.081     -24.466
  H     -134.668    -198.884     -26.291
  H     -135.968    -197.236     -24.955
  H     -138.939    -195.553     -26.443
  H     -138.962    -197.853     -24.680
  H     -137.443    -196.786     -23.194
  H     -138.969    -194.199     -23.869
  H     -135.835    -199.839     -29.690
  H     -136.836    -193.088     -23.285
  H     -134.635    -200.168     -28.475
  H     -137.526    -193.918     -21.886
  P     -139.288    -197.585     -21.305
  C     -137.590    -198.717     -19.732
  O     -137.773    -197.984     -20.939
  O     -140.102    -198.707     -21.858
  O     -139.828    -197.015     -19.909
  H     -139.262    -196.339     -19.496
  H     -136.549    -198.924     -19.595
  H     -138.132    -199.638     -19.788
  H     -137.951    -198.140     -18.906

 6  7  8  9  10  11  12  13  14  15  16  26  30  31  32  33  35 0
 6-311+G(2d,p)
 ****
 37  38 0
 6-311+G(2d,p)
 ****
 1  2  3  4  5  17  18  19  20  21  22  23  24  25 0
 3-21G
 ****
 27  28  29  34  36  39  40  41  42  43  44  45  46 0
 3-21G
 ****


