%nproc=1
%NoSave
%Mem=1900MB
#P OB98/GEN NMR

erre ene a

0 1
  C      657.205      50.533     -31.537
  O      657.842      51.165     -32.626
  H      656.690      51.294     -30.946
  H      657.936      50.028     -30.899
  H      656.464      49.814     -31.896
  P      658.766      50.278     -33.590
  C      656.844      48.952     -34.704
  O      657.978      48.905     -33.852
  C      657.064      48.086     -35.951
  O      657.125      46.689     -35.549
  C      655.931      48.205     -36.996
  O      656.520      47.978     -38.284
  C      655.036      47.045     -36.604
  O      654.108      46.750     -37.612
  C      656.085      45.982     -36.266
  N      655.544      44.876     -35.493
  C      654.672      44.018     -36.176
  O      654.395      44.223     -37.360
  N      654.114      42.964     -35.493
  C      654.348      42.828     -34.226
  N      653.755      41.772     -33.601
  C      655.216      43.750     -33.457
  C      655.777      44.737     -34.150
  O      660.187      50.115     -33.156
  O      658.675      51.023     -35.007
  H      653.556      47.533     -37.826
  H      659.505      51.507     -35.178
  H      655.365      43.597     -32.395
  H      656.424      45.465     -33.674
  H      656.543      45.579     -37.186
  H      654.457      47.294     -35.703
  H      655.434      49.181     -36.972
  H      658.032      48.335     -36.389
  H      653.165      41.175     -34.164
  H      656.693      49.997     -34.996
  H      653.845      41.580     -32.618
  H      655.952      48.604     -34.167
  P      656.925      49.173     -39.277
  C      659.482      48.817     -39.296
  O      658.402      49.675     -38.925
  O      655.910      50.265     -39.359
  O      657.101      48.470     -40.715
  H      656.868      49.109     -41.413
  H      660.409      49.265     -39.007
  H      659.472      48.669     -40.356
  H      659.373      47.873     -38.804

 6  7  8  9  10  11  12  13  14  15  16  26  30  31  32  33  35 0
 6-311+G(2d,p)
 ****
 37  38 0
 6-311+G(2d,p)
 ****
 1  2  3  4  5  17  18  19  20  21  22  23  24  25 0
 3-21G
 ****
 27  28  29  34  36  39  40  41  42  43  44  45  46 0
 3-21G
 ****


