%nproc=1
%NoSave
%Mem=1900MB
#P OB98/GEN NMR

erre ene a

0 1
  C      747.311     288.915      38.811
  O      747.961     290.098      39.234
  P      747.367     291.544      38.881
  C      749.667     292.442      38.140
  O      748.577     292.589      39.044
  C      751.004     292.576      38.887
  O      751.140     293.963      39.340
  C      751.101     291.662      40.119
  O      752.269     290.840      40.158
  C      750.948     292.637      41.278
  O      751.456     292.149      42.507
  C      751.605     293.894      40.705
  N      751.262     295.099      41.471
  C      751.676     295.146      42.797
  O      752.311     294.258      43.358
  N      751.285     296.250      43.501
  C      750.438     297.227      43.073
  O      750.050     298.130      43.790
  C      749.998     297.102      41.665
  C      750.450     296.077      40.929
  O      746.125     291.924      39.608
  O      747.195     291.487      37.284
  H      751.553     292.910      43.113
  H      748.016     291.317      36.793
  H      751.575     296.294      44.472
  H      749.324     297.850      41.294
  H      750.139     295.959      39.898
  H      752.690     293.805      40.677
  H      749.872     292.817      41.423
  H      750.267     290.938      40.139
  H      751.805     292.370      38.171
  H      749.601     293.223      37.375
  H      749.595     291.474      37.634
  P      752.273     289.240      40.103
  C      752.251     288.941      42.686
  O      752.911     288.697      41.463
  O      752.844     288.647      38.852
  O      750.722     288.852      40.252
  H      750.554     288.011      39.788
  H      752.994     288.978      43.489
  H      751.558     288.125      42.892
  H      751.700     289.886      42.664
  H      747.865     288.064      39.147
  H      747.252     288.903      37.743
  H      746.324     288.883      39.223

 3  4  5  6  7  8  9  10  11  12  13  23  28  29  30  31  32 0
 6-311+G(2d,p)
 ****
 33  34 0
 6-311+G(2d,p)
 ****
 1  2  14  15  16  17  18  19  20  21  22  24  25  26  27 0
 3-21G
 ****
 35  36  37  38  39  40  41  42  43  44  45 0
 3-21G
 ****


