%nproc=1
%NoSave
%Mem=1900MB
#P OB98/GEN NMR

erre ene a

0 1
  C      692.648     167.137     -78.569
  O      693.526     166.729     -79.598
  H      693.087     166.863     -77.605
  H      691.682     166.642     -78.670
  H      692.515     168.221     -78.596
  P      693.035     167.000     -81.105
  C      693.452     164.701     -82.199
  O      693.947     166.022     -82.000
  C      694.361     163.924     -83.153
  O      694.360     164.592     -84.444
  C      695.822     163.848     -82.675
  O      696.363     162.578     -83.048
  C      696.503     164.945     -83.488
  O      697.905     164.725     -83.615
  C      695.723     164.869     -84.803
  N      697.825     167.047     -88.904
  C      697.755     165.763     -88.496
  N      697.156     165.268     -87.396
  C      696.527     166.244     -86.712
  C      696.510     167.596     -87.003
  C      697.206     167.998     -88.155
  N      697.303     169.304     -88.565
  N      695.801     168.285     -86.036
  C      695.388     167.367     -85.183
  N      695.823     166.113     -85.549
  O      693.029     168.427     -81.536
  O      691.614     166.264     -81.124
  H      698.336     164.956     -82.762
  H      691.664     165.374     -80.722
  H      698.268     165.039     -89.135
  H      694.792     167.544     -84.297
  H      696.082     164.062     -85.470
  H      696.355     165.911     -83.005
  H      695.931     164.005     -81.607
  H      693.943     162.921     -83.310
  H      692.435     164.739     -82.622
  H      697.831     169.512     -89.404
  H      696.850     170.033     -88.028
  H      693.407     164.206     -81.225
  P      696.704     161.517     -81.905
  C      698.997     161.275     -83.057
  O      697.930     160.601     -82.388
  O      695.539     160.755     -81.359
  O      697.376     162.417     -80.760
  H      697.042     162.144     -79.886
  H      699.751     160.567     -83.330
  H      699.418     162.011     -82.405
  H      698.621     161.752     -83.938

 6  7  8  9  10  11  12  13  14  15  25  28  32  33  34  35 0
 6-311+G(2d,p)
 ****
 36  39  40 0
 6-311+G(2d,p)
 ****
 1  2  3  4  5  16  17  18  19  20  21  22  23  24 0
 3-21G
 ****
 26  27  29  30  31  37  38  41  42  43  44  45  46  47 0
 3-21G
 ****
 48 0
 3-21G
 ****


