%nproc=1
%NoSave
%Mem=1900MB
#P OB98/GEN NMR

erre ene a

0 1
  C      232.902     114.281     319.033
  O      231.706     113.793     319.608
  H      232.687     115.219     318.517
  H      233.294     113.560     318.310
  H      233.647     114.468     319.812
  P      231.812     112.424     320.436
  C      231.188     113.576     322.682
  O      232.153     112.835     321.949
  C      231.753     114.950     323.034
  O      232.070     115.673     321.821
  C      230.779     115.841     323.793
  O      230.700     115.506     325.166
  C      231.376     117.214     323.536
  O      232.443     117.501     324.449
  C      231.921     117.082     322.109
  N      231.229     121.206     319.181
  C      232.246     120.832     319.990
  N      232.359     119.710     320.728
  C      231.291     118.916     320.548
  C      230.182     119.160     319.754
  C      230.175     120.372     319.043
  N      229.130     120.764     318.238
  N      229.272     118.127     319.860
  C      229.822     117.269     320.694
  N      231.044     117.702     321.134
  O      233.174     111.781     319.898
  O      230.657     111.495     320.274
  H      232.022     117.815     325.273
  H      232.971     111.093     319.236
  H      233.073     121.536     320.061
  H      229.378     116.335     321.015
  H      232.909     117.543     321.997
  H      230.624     117.995     323.649
  H      229.784     115.796     323.328
  H      232.681     114.813     323.602
  H      230.945     113.040     323.606
  H      230.281     113.674     322.077
  H      229.162     121.675     317.814
  H      228.289     120.202     318.220
  P      229.301     114.948     325.718
  C      230.076     112.833     327.034
  O      229.451     113.360     325.870
  O      228.304     115.121     324.478
  O      228.794     115.641     326.938
  H      227.412     115.354     324.800
  H      230.094     111.765     326.976
  H      229.526     113.134     327.901
  H      231.078     113.204     327.100

 6  7  8  9  10  11  12  13  14  15  25  28  32  33  34  35 0
 6-311+G(2d,p)
 ****
 36  37  40 0
 6-311+G(2d,p)
 ****
 1  2  3  4  5  16  17  18  19  20  21  22  23  24 0
 3-21G
 ****
 26  27  29  30  31  38  39 41  42  43  44  45  46  47  48 0
 3-21G
 ****


