%nproc=1
%NoSave
%Mem=1900MB
#P OB98/GEN NMR

erre ene a

0 1
  C     -121.339     222.477     607.244
  O     -120.707     223.156     606.172
  H     -120.610     221.821     607.720
  H     -122.171     221.876     606.873
  H     -121.703     223.202     607.984
  P     -121.607     224.197     605.348
  C     -121.863     222.329     603.544
  O     -122.507     223.319     604.345
  C     -122.723     221.069     603.503
  O     -123.176     220.741     604.841
  C     -123.988     221.200     602.669
  O     -123.735     221.092     601.281
  C     -124.828     220.064     603.224
  O     -124.488     218.809     602.610
  C     -124.438     220.055     604.707
  N     -129.229     219.691     606.453
  C     -128.478     218.849     605.702
  N     -127.198     219.018     605.294
  C     -126.697     220.182     605.756
  C     -127.344     221.131     606.523
  C     -128.679     220.851     606.884
  N     -129.456     221.709     607.620
  N     -126.519     222.208     606.769
  C     -125.390     221.916     606.159
  N     -125.450     220.694     605.535
  O     -120.544     224.905     604.385
  O     -122.357     225.184     606.178
  H     -124.673     218.912     601.655
  H     -120.302     225.774     604.759
  H     -128.960     217.932     605.389
  H     -124.502     222.544     606.135
  H     -124.304     219.035     605.095
  H     -125.890     220.243     603.045
  H     -124.484     222.153     602.892
  H     -122.102     220.234     603.139
  H     -120.885     222.096     603.979
  H     -121.718     222.731     602.538
  H     -130.423     221.476     607.779
  H     -129.090     222.630     607.848
  P     -124.006     222.381     600.369
  C     -125.419     220.936     598.710
  O     -125.352     222.094     599.532
  O     -122.852     222.317     599.255
  O     -124.004     223.679     601.101
  H     -122.564     223.222     599.027
  H     -126.373     220.896     598.228
  H     -125.287     220.062     599.313
  H     -124.647     220.979     597.970

 6  7  8  9  10  11  12  13  14  15  25  28  32  33  34  35 0
 6-311+G(2d,p)
 ****
 36  37  40 0
 6-311+G(2d,p)
 ****
 1  2  3  4  5  16  17  18  19  20  21  22  23  24 0
 3-21G
 ****
 26  27  29  30  31  38  39 41  42  43  44  45  46  47  48 0
 3-21G
 ****


