%nproc=1
%NoSave
%Mem=1900MB
#P OB98/GEN NMR

erre ene a

0 1
  C     -171.821    -899.233      48.910
  O     -172.656    -898.383      48.104
  P     -173.416    -897.153      48.772
  C     -172.415    -895.153      47.393
  O     -172.474    -895.843      48.634
  C     -172.423    -893.633      47.608
  O     -173.657    -893.243      48.259
  C     -171.313    -893.133      48.516
  O     -170.072    -893.073      47.835
  C     -171.847    -891.763      48.929
  O     -171.584    -890.783      47.898
  C     -173.366    -892.043      49.021
  N     -173.822    -892.143      50.415
  C     -174.769    -891.213      50.835
  O     -175.201    -890.333      50.100
  N     -175.209    -891.363      52.128
  C     -174.742    -892.253      53.045
  O     -175.161    -892.313      54.182
  C     -173.665    -893.153      52.568
  C     -173.257    -893.063      51.313
  O     -173.267    -897.483      50.336
  O     -174.847    -896.963      48.395
  H     -172.056    -891.063      47.096
  H     -174.023    -897.063      50.825
  H     -175.925    -890.713      52.429
  H     -173.237    -893.853      53.263
  H     -172.462    -893.693      50.945
  H     -173.940    -891.243      48.540
  H     -171.391    -891.413      49.849
  H     -171.227    -893.773      49.400
  H     -172.402    -893.163      46.636
  H     -173.275    -895.443      46.758
  H     -171.502    -895.453      46.855
  P     -168.764    -893.473      48.668
  C     -167.695    -894.623      46.581
  O     -168.121    -894.723      47.919
  O     -169.423    -894.053      50.003
  O     -167.842    -892.293      48.888
  H     -170.277    -894.513      49.829
  H     -167.292    -893.643      46.353
  H     -168.537    -894.843      45.906
  H     -166.921    -895.373      46.421
  H     -171.395    -900.000      48.297
  H     -172.409    -899.681      49.684
  H     -171.038    -898.651      49.349

 3  4  5  6  7  8  9  10  11  12  13  23  28  29  30  31  32 0
 6-311+G(2d,p)
 ****
 33  34 0
 6-311+G(2d,p)
 ****
 1  2  14  15  16  17  18  19  20  21  22  24  25  26 0
 3-21G
 ****
 27  35  36  37  38  39  40  41  42  43  44  45 0
 3-21G
 ****


