%nproc=1
%NoSave
%Mem=1900MB
#P OB98/GEN NMR

erre ene a

0 1
  C      383.965     -62.726    -195.792
  O      383.345     -62.224    -196.988
  P      383.208     -60.660    -197.318
  C      380.697     -60.938    -197.833
  O      381.944     -60.429    -198.282
  C      379.660     -60.982    -198.965
  O      379.358     -59.620    -199.418
  C      380.099     -61.790    -200.198
  O      378.931     -62.481    -200.672
  C      380.524     -60.698    -201.162
  O      380.575     -61.117    -202.515
  C      379.435     -59.650    -200.866
  N      379.701     -58.308    -201.388
  C      378.948     -57.893    -202.500
  O      378.141     -58.632    -203.043
  N      379.150     -56.607    -202.967
  C      380.020     -55.837    -202.409
  N      380.157     -54.582    -202.926
  C      380.842     -56.242    -201.260
  C      380.634     -57.478    -200.800
  O      384.469     -60.042    -197.840
  O      382.778     -59.963    -195.942
  H      383.193     -59.088    -195.880
  H      379.656     -61.166    -202.843
  H      381.555     -55.566    -200.815
  H      381.179     -57.850    -199.940
  H      378.475     -60.013    -201.234
  H      381.523     -60.344    -200.874
  H      380.879     -62.527    -199.992
  H      378.729     -61.384    -198.552
  H      379.570     -54.332    -203.714
  H      380.318     -60.291    -197.031
  H      380.795     -53.895    -202.566
  H      380.850     -61.939    -197.415
  P      378.893     -64.088    -200.657
  C      377.729     -64.171    -202.983
  O      377.710     -64.555    -201.631
  O      378.277     -64.391    -199.209
  O      380.215     -64.779    -200.813
  H      378.569     -65.278    -198.917
  H      377.467     -65.031    -203.606
  H      378.706     -63.805    -203.302
  H      376.985     -63.381    -203.153
  H      383.937     -63.796    -195.797
  H      383.438     -62.360    -194.936
  H      384.982     -62.396    -195.752

 3  4  5  6  7  8  9  10  11  12  13  24  27  28  29  30  32 0
 6-311+G(2d,p)
 ****
 34  35 0
 6-311+G(2d,p)
 ****
 1  2  14  15  16  17  18  19  20  21  22  23  25  26 0
 3-21G
 ****
 31  33  36  37  38  39  40  41  42  43  44  45  46 0
 3-21G
 ****


