%nproc=1
%NoSave
%Mem=1900MB
#P OB98/GEN NMR

erre ene a

0 1
  C      167.887    -156.851    -160.757
  O      167.818    -157.999    -159.928
  H      168.899    -156.772    -161.165
  H      167.674    -155.944    -160.185
  H      167.179    -156.938    -161.586
  P      166.476    -158.246    -159.089
  C      165.434    -157.185    -156.971
  O      166.484    -157.139    -157.930
  C      166.010    -157.317    -155.567
  O      166.549    -156.055    -155.124
  C      164.973    -157.713    -154.526
  O      164.657    -159.088    -154.623
  C      165.673    -157.292    -153.249
  O      166.644    -158.264    -152.840
  C      166.360    -155.979    -153.694
  N      165.595    -154.791    -153.330
  C      165.334    -154.623    -151.966
  O      165.744    -155.445    -151.146
  N      164.591    -153.539    -151.571
  C      164.171    -152.686    -152.451
  N      163.439    -151.632    -151.994
  C      164.434    -152.820    -153.895
  C      165.141    -153.885    -154.260
  O      166.229    -159.643    -158.609
  O      165.319    -157.733    -160.069
  H      167.134    -157.853    -152.101
  H      165.007    -158.461    -160.637
  H      164.066    -152.080    -154.594
  H      165.385    -154.056    -155.305
  H      167.358    -155.895    -153.244
  H      164.969    -157.162    -152.428
  H      164.073    -157.101    -154.639
  H      166.834    -158.044    -155.598
  H      163.273    -151.588    -150.994
  H      164.814    -158.055    -157.211
  H      163.136    -150.865    -152.571
  H      164.809    -156.286    -157.040
  P      163.132    -159.581    -154.562
  C      161.149    -158.829    -153.093
  O      162.560    -159.021    -153.168
  O      162.921    -161.039    -154.801
  O      162.405    -158.649    -155.646
  H      162.628    -158.928    -156.568
  H      160.891    -158.456    -152.124
  H      160.653    -159.762    -153.260
  H      160.845    -158.125    -153.839

 6  7  8  9  10  11  12  13  14  15  16  26  30  31  32  33  35 0
 6-311+G(2d,p)
 ****
 37  38 0
 6-311+G(2d,p)
 ****
 1  2  3  4  5  17  18  19  20  21  22  23  24  25 0
 3-21G
 ****
 27  28  29  34  36  39  40  41  42  43  44  45  46 0
 3-21G
 ****


