%nproc=1
%NoSave
%Mem=1900MB
#P OB98/GEN NMR

erre ene a

0 1
  C     -803.216     -76.081     199.843
  O     -803.772     -75.142     198.927
  P     -805.275     -74.634     199.162
  C     -805.172     -72.446     197.799
  O     -805.712     -73.760     197.891
  C     -805.178     -71.953     196.351
  O     -804.319     -72.749     195.509
  C     -806.552     -72.024     195.699
  O     -807.396     -70.991     196.185
  C     -806.188     -71.927     194.226
  O     -805.987     -70.559     193.832
  C     -804.850     -72.698     194.165
  N     -804.976     -74.028     193.599
  C     -803.907     -74.459     192.801
  O     -802.956     -73.707     192.585
  N     -803.961     -75.720     192.257
  C     -804.985     -76.479     192.485
  N     -804.975     -77.718     191.922
  C     -806.135     -76.062     193.305
  C     -806.069     -74.834     193.819
  O     -805.542     -74.002     200.489
  O     -806.134     -75.975     198.972
  H     -806.865     -70.130     193.888
  H     -806.934     -75.913     199.533
  H     -806.967     -76.738     193.471
  H     -806.873     -74.446     194.434
  H     -804.119     -72.144     193.564
  H     -806.982     -72.332     193.586
  H     -807.008     -73.001     195.905
  H     -804.813     -70.914     196.343
  H     -804.181     -77.976     191.354
  H     -804.147     -72.450     198.185
  H     -805.702     -78.398     192.082
  H     -805.749     -71.778     198.448
  P     -808.796     -71.421     196.843
  C     -808.641     -69.214     198.194
  O     -809.462     -70.106     197.473
  O     -808.345     -72.263     198.134
  O     -809.684     -72.232     195.948
  H     -808.989     -72.977     198.292
  H     -809.156     -68.250     198.279
  H     -807.685     -69.057     197.686
  H     -808.462     -69.609     199.199
  H     -802.215     -76.316     199.549
  H     -803.807     -76.973     199.842
  H     -803.209     -75.659     200.826

 3  4  5  6  7  8  9  10  11  12  13  23  27  28  29  30  32 0
 6-311+G(2d,p)
 ****
 34  35 0
 6-311+G(2d,p)
 ****
 1  2  14  15  16  17  18  19  20  21  22  24  25  26 0
 3-21G
 ****
 31  33  36  37  38  39  40  41  42  43  44  45  46 0
 3-21G
 ****


