%nproc=1
%NoSave
%Mem=1900MB
#P OB98/GEN NMR

erre ene a

0 1
  C     -334.933     229.197    -625.865
  O     -333.521     228.967    -625.861
  P     -332.737     229.118    -627.263
  C     -331.180     227.052    -626.862
  O     -331.276     228.449    -627.098
  C     -329.825     226.699    -626.265
  O     -328.726     227.028    -627.168
  C     -329.501     227.448    -624.967
  O     -330.119     226.818    -623.856
  C     -327.998     227.289    -624.909
  O     -327.661     225.986    -624.402
  C     -327.579     227.407    -626.379
  N     -325.015     230.176    -629.850
  C     -325.228     228.834    -629.715
  N     -325.900     228.186    -628.753
  C     -326.425     229.044    -627.873
  C     -326.290     230.429    -627.876
  C     -325.556     230.988    -628.915
  N     -325.376     232.361    -629.044
  N     -326.950     230.969    -626.794
  C     -327.481     229.932    -626.151
  N     -327.171     228.751    -626.763
  O     -332.423     230.693    -627.329
  O     -333.511     228.662    -628.452
  H     -328.194     225.330    -624.887
  H     -332.459     230.988    -628.247
  H     -324.766     228.204    -630.509
  H     -328.078     229.996    -625.258
  H     -326.765     226.723    -626.629
  H     -327.520     228.012    -624.246
  H     -329.778     228.502    -625.053
  H     -329.802     225.603    -626.089
  H     -331.336     226.506    -627.804
  H     -324.835     232.685    -629.855
  H     -325.778     232.977    -628.365
  H     -331.993     226.748    -626.197
  P     -330.680     227.772    -622.697
  C     -330.021     226.511    -620.513
  O     -331.026     226.813    -621.462
  O     -332.128     228.216    -623.257
  O     -329.831     228.960    -622.376
  H     -332.354     229.110    -622.930
  H     -330.494     226.114    -619.607
  H     -329.450     227.417    -620.252
  H     -329.336     225.767    -620.923
  H     -335.319     229.063    -624.876
  H     -335.405     228.504    -626.529
  H     -335.131     230.196    -626.193

 3  4  5  6  7  8  9  10  11  12  22  25  29  30  31  32 0
 6-311+G(2d,p)
 ****
 33  36  37 0
 6-311+G(2d,p)
 ****
 1  2  13  14  15  16  17  18  19  20  21  23  24  26 0
 3-21G
 ****
 27  28  34  35  38  39  40  41  42  43  44  45  46  47  48 0
 3-21G
 ****


