%nproc=1
%NoSave
%Mem=1900MB
#P OB98/GEN NMR

erre ene a

0 1
  C     -115.773      36.449      74.422
  O     -114.378      36.483      74.177
  H     -115.984      35.653      75.141
  H     -116.325      36.237      73.502
  H     -116.106      37.402      74.842
  P     -113.834      37.466      73.035
  C     -113.465      35.506      71.387
  O     -114.146      36.729      71.648
  C     -113.867      34.966      70.016
  O     -115.219      34.468      70.053
  C     -113.842      36.024      68.923
  O     -112.516      36.307      68.523
  C     -114.718      35.370      67.874
  O     -113.989      34.391      67.122
  C     -115.803      34.701      68.749
  N     -117.017      35.502      68.855
  C     -117.825      35.546      67.713
  O     -117.504      34.928      66.698
  N     -118.966      36.309      67.749
  C     -119.282      36.954      68.827
  N     -120.424      37.691      68.796
  C     -118.466      36.923      70.056
  C     -117.357      36.189      69.999
  O     -112.422      37.947      73.174
  O     -114.884      38.676      73.048
  H     -114.663      33.852      66.662
  H     -114.599      39.368      73.672
  H     -118.772      37.473      70.934
  H     -116.701      36.110      70.859
  H     -116.073      33.718      68.344
  H     -115.113      36.101      67.169
  H     -114.346      36.933      69.268
  H     -113.205      34.125      69.768
  H     -120.948      37.691      67.927
  H     -113.754      34.800      72.171
  H     -120.815      38.161      69.598
  H     -112.380      35.650      71.432
  P     -112.103      37.783      68.053
  C     -113.015      37.234      65.702
  O     -113.071      38.122      66.815
  O     -110.647      37.989      67.802
  O     -112.683      38.712      69.223
  H     -112.134      38.645      70.042
  H     -113.700      37.563      64.948
  H     -113.281      36.247      66.019
  H     -112.022      37.225      65.303

 6  7  8  9  10  11  12  13  14  15  16  26  30  31  32  33  35 0
 6-311+G(2d,p)
 ****
 37  38 0
 6-311+G(2d,p)
 ****
 1  2  3  4  5  17  18  19  20  21  22  23  24  25 0
 3-21G
 ****
 27  28  29  34  36  39  40  41  42  43  44  45  46 0
 3-21G
 ****


