%nproc=1
%NoSave
%Mem=1900MB
#P OB98/GEN NMR

erre ene a

0 1
  C       -0.960    -245.021    -496.089
  O       -0.315    -244.181    -495.151
  H       -1.589    -244.404    -496.737
  H       -1.594    -245.750    -495.578
  H       -0.223    -245.539    -496.708
  P        0.665    -244.855    -494.080
  C        0.885    -242.407    -493.292
  O        0.847    -243.774    -492.909
  C        0.686    -241.517    -492.071
  O        1.485    -241.989    -490.969
  C        1.079    -240.057    -492.297
  O        0.037    -239.361    -492.963
  C        1.281    -239.602    -490.861
  O        0.002    -239.385    -490.235
  C        1.974    -240.827    -490.243
  N        6.237    -238.867    -488.325
  C        4.917    -238.593    -488.018
  N        4.707    -237.629    -487.098
  N        3.900    -239.197    -488.577
  C        4.265    -240.086    -489.527
  C        5.534    -240.431    -489.932
  C        6.653    -239.797    -489.266
  O        7.837    -240.022    -489.497
  N        5.508    -241.324    -490.971
  C        4.223    -241.550    -491.169
  N        3.426    -240.811    -490.328
  O        1.960    -245.393    -494.611
  O       -0.225    -245.993    -493.397
  H       -0.495    -238.786    -490.820
  H       -0.112    -246.849    -493.850
  H        6.975    -238.354    -487.873
  H        3.819    -242.237    -491.902
  H        1.714    -240.965    -489.187
  H        1.845    -238.673    -490.781
  H        5.422    -236.953    -486.859
  H        2.032    -239.971    -492.827
  H        3.748    -237.379    -486.896
  H       -0.364    -241.596    -491.764
  H        0.082    -242.244    -494.019
  H        1.842    -242.170    -493.768
  P        0.301    -238.619    -494.362
  C       -2.095    -239.391    -494.948
  O       -1.158    -238.321    -494.954
  O        1.215    -239.341    -495.293
  O        0.812    -237.165    -493.954
  H        1.792    -237.109    -493.828
  H       -3.021    -239.057    -495.368
  H       -2.257    -239.718    -493.942
  H       -1.712    -240.204    -495.529

 6  7  8  9  10  11  12  13  14  15  26  29  33  34 0
 6-311+G(2d,p)
 ****
 36  38  39  40  41 0
 6-311+G(2d,p)
 ****
 1  2  3  4  5  16  17  18  19  20  21  22  23  24  25 0
 3-21G
 ****
 27  28  30  31  32  35  37  42  43  44  45  46  47 0
 3-21G
 ****
 48  49 0
 3-21G
 ****


