%nproc=1
%NoSave
%Mem=1900MB
#P OB98/GEN NMR

erre ene a

0 1
  C     -166.789     602.659    -181.182
  O     -168.137     602.843    -181.554
  H     -166.484     603.499    -180.551
  H     -166.159     602.644    -182.076
  H     -166.651     601.732    -180.621
  P     -168.965     601.586    -182.094
  C     -170.262     600.970    -179.950
  O     -169.225     600.602    -180.850
  C     -170.767     599.773    -179.143
  O     -171.263     598.746    -180.032
  C     -169.661     599.118    -178.317
  O     -169.406     599.721    -177.062
  C     -170.194     597.700    -178.146
  O     -171.087     597.621    -177.021
  C     -170.956     597.466    -179.452
  N     -169.975     592.801    -181.292
  C     -170.784     593.165    -180.232
  N     -171.353     592.154    -179.542
  N     -170.991     594.404    -179.878
  C     -170.278     595.303    -180.599
  C     -169.437     595.060    -181.663
  C     -169.255     593.686    -182.083
  O     -168.546     593.309    -183.010
  N     -168.892     596.225    -182.149
  C     -169.346     597.158    -181.336
  N     -170.211     596.651    -180.396
  O     -167.889     600.768    -182.959
  O     -170.175     601.918    -182.913
  H     -171.480     596.729    -177.005
  H     -168.341     600.247    -183.645
  H     -169.873     591.830    -181.539
  H     -169.101     598.213    -181.400
  H     -171.912     596.957    -179.274
  H     -169.390     596.983    -177.961
  H     -171.130     591.184    -179.705
  H     -168.732     599.067    -178.895
  H     -171.727     592.361    -178.612
  H     -171.608     600.089    -178.514
  H     -171.072     601.380    -180.554
  H     -169.921     601.763    -179.282
  P     -168.033     599.422    -176.291
  C     -167.051     601.790    -176.741
  O     -166.925     600.395    -176.919
  O     -167.627     597.975    -176.842
  O     -168.130     599.445    -174.807
  H     -167.917     597.284    -176.219
  H     -166.233     602.286    -177.220
  H     -167.043     602.018    -175.696
  H     -167.972     602.123    -177.172

 6  7  8  9  10  11  12  13  14  15  26  29  33  34 0
 6-311+G(2d,p)
 ****
 36  38  39  40  41 0
 6-311+G(2d,p)
 ****
 1  2  3  4  5  16  17  18  19  20  21  22  23  24  25 0
 3-21G
 ****
 27  28  30  31  32  35  37  42  43  44  45  46  47 0
 3-21G
 ****
 48  49 0
 3-21G
 ****


