%nproc=1
%NoSave
%Mem=1900MB
#P OB98/GEN NMR

erre ene a

0 1
  C      279.937     155.105      36.343
  O      278.998     154.024      36.402
  P      277.493     154.309      35.933
  C      277.169     152.896      33.774
  O      277.435     154.172      34.338
  C      276.030     152.992      32.754
  O      276.340     153.924      31.695
  C      275.713     151.670      32.068
  O      274.859     150.857      32.860
  C      274.966     152.154      30.834
  O      273.599     152.461      31.179
  C      275.730     153.434      30.474
  N      277.080     154.352      25.687
  C      275.955     154.745      26.385
  N      275.060     155.500      25.711
  N      275.726     154.426      27.634
  C      276.713     153.683      28.184
  C      277.873     153.230      27.596
  C      278.106     153.576      26.213
  O      279.076     153.246      25.537
  N      278.625     152.498      28.475
  C      277.935     152.523      29.600
  N      276.758     153.216      29.469
  O      277.344     155.889      36.156
  O      276.459     153.546      36.691
  H      273.119     151.611      31.196
  H      276.412     156.113      36.329
  H      277.202     154.621      24.727
  H      278.244     152.058      30.527
  H      275.070     154.223      30.095
  H      274.930     151.397      30.046
  H      275.197     155.823      24.767
  H      276.630     151.146      31.772
  H      274.246     155.826      26.216
  H      275.133     153.349      33.280
  H      276.906     152.181      34.558
  H      278.086     152.512      33.316
  P      274.976     149.266      32.694
  C      276.776     149.144      34.559
  O      276.436     148.871      33.216
  O      275.067     149.083      31.105
  O      273.842     148.493      33.274
  H      274.661     148.235      30.842
  H      277.734     148.667      34.782
  H      276.018     148.746      35.239
  H      276.877     150.223      34.709
  H      280.893     154.766      36.685
  H      279.598     155.906      36.967
  H      280.021     155.450      35.334

 3  4  5  6  7  8  9  10  11  12  23  26  30  31 0
 6-311+G(2d,p)
 ****
 33  35  36  37  38 0
 6-311+G(2d,p)
 ****
 1  2  13  14  15  16  17  18  19  20  21  22  24  25 0
 3-21G
 ****
 27  28  29  32  34  39  40  41  42  43  44  45  46  47  48  49 0
 3-21G
 ****


