%nproc=1
%NoSave
%Mem=1900MB
#P OB98/GEN NMR

erre ene a

0 1
  C      136.383      12.810    -151.259
  O      135.073      13.289    -151.004
  P      134.785      13.950    -149.570
  C      135.077      13.050    -147.114
  O      134.965      12.769    -148.501
  C      134.520      11.883    -146.293
  O      133.077      11.872    -146.372
  C      134.964      10.505    -146.766
  O      136.292      10.211    -146.364
  C      133.897       9.617    -146.134
  O      134.203       9.379    -144.750
  C      132.637      10.500    -146.256
  N      131.775      10.125    -147.378
  C      130.404      10.174    -147.142
  O      129.918      10.511    -146.062
  N      129.605       9.800    -148.190
  C      130.032       9.333    -149.400
  O      129.274       8.971    -150.291
  C      131.493       9.274    -149.579
  C      132.283       9.666    -148.576
  O      133.204      14.178    -149.665
  O      135.589      15.180    -149.319
  H      132.781      13.538    -150.265
  H      134.255      10.257    -144.324
  H      128.606       9.849    -148.052
  H      131.869       8.898    -150.522
  H      133.360       9.619    -148.687
  H      132.046      10.446    -145.333
  H      133.814       8.641    -146.626
  H      134.889      10.444    -147.859
  H      134.802      12.038    -145.243
  H      134.515      13.960    -146.889
  H      136.132      13.221    -146.869
  P      137.252       9.552    -147.480
  C      137.136       7.319    -148.832
  O      136.709       8.064    -147.713
  O      138.605       9.355    -146.646
  O      137.398      10.385    -148.712
  H      138.451       9.024    -145.745
  H      136.959       6.258    -148.635
  H      138.201       7.468    -149.030
  H      136.557       7.616    -149.711
  H      136.427      12.399    -152.246
  H      136.631      12.052    -150.546
  H      137.080      13.618    -151.177

 3  4  5  6  7  8  9  10  11  12  13  24  28  29  30  31  32 0
 6-311+G(2d,p)
 ****
 33  34 0
 6-311+G(2d,p)
 ****
 1  2  14  15  16  17  18  19  20  21  22  23  25  26  27 0
 3-21G
 ****
 35  36  37  38  39  40  41  42  43  44  45 0
 3-21G
 ****


