%nproc=1
%NoSave
%Mem=1900MB
#P OB98/GEN NMR

erre ene a

0 1
  C     -467.297    -306.675      27.651
  O     -467.494    -305.419      28.279
  H     -467.846    -306.707      26.704
  H     -466.232    -306.804      27.451
  H     -467.638    -307.484      28.306
  P     -469.012    -305.033      28.639
  C     -470.835    -303.510      27.612
  O     -469.489    -303.950      27.548
  C     -471.515    -303.711      26.257
  O     -470.745    -302.991      25.259
  C     -471.616    -305.182      25.815
  O     -472.957    -305.497      25.407
  C     -470.707    -305.269      24.599
  O     -471.181    -306.179      23.615
  C     -470.691    -303.828      24.093
  N     -468.533    -304.436      19.511
  C     -469.818    -304.478      19.899
  N     -470.340    -304.215      21.116
  C     -469.373    -303.837      21.980
  C     -468.017    -303.721      21.717
  C     -467.592    -304.060      20.421
  N     -466.273    -304.067      20.031
  N     -467.333    -303.313      22.849
  C     -468.263    -303.232      23.791
  N     -469.505    -303.552      23.310
  O     -468.863    -304.177      29.986
  O     -469.920    -306.205      28.831
  H     -472.118    -305.956      23.438
  H     -469.342    -304.634      30.705
  H     -470.535    -304.776      19.134
  H     -468.075    -302.986      24.827
  H     -471.572    -303.604      23.476
  H     -469.708    -305.587      24.919
  H     -471.303    -305.879      26.598
  H     -472.513    -303.254      26.294
  H     -470.864    -302.446      27.871
  H     -466.049    -304.440      19.123
  H     -465.563    -303.895      20.738
  H     -471.361    -304.075      28.388
  P     -473.980    -305.902      26.584
  C     -474.431    -307.999      28.061
  O     -473.641    -307.415      27.032
  O     -475.383    -306.025      25.818
  O     -474.043    -304.905      27.695
  H     -476.031    -305.441      26.233
  H     -474.092    -308.996      28.249
  H     -475.456    -308.023      27.754
  H     -474.340    -307.417      28.954

 6  7  8  9  10  11  12  13  14  15  25  28  32  33  34  35 0
 6-311+G(2d,p)
 ****
 36  39  40 0
 6-311+G(2d,p)
 ****
 1  2  3  4  5  16  17  18  19  20  21  22  23  24 0
 3-21G
 ****
 26  27  29  30  31  37  38  41  42  43  44  45  46  47  48 0
 3-21G
 ****


