%nproc=1
%NoSave
%Mem=1900MB
#P OB98/GEN NMR

erre ene a

0 1
  C      -53.767    -115.009      11.381
  O      -54.603    -114.627      10.301
  P      -54.971    -113.078      10.132
  C      -52.635    -112.343       9.252
  O      -53.610    -112.238      10.281
  C      -52.200    -110.948       8.791
  O      -53.376    -110.187       8.378
  C      -51.480    -110.129       9.870
  O      -50.498    -109.316       9.210
  C      -52.591    -109.247      10.410
  O      -52.113    -108.101      11.096
  C      -53.348    -108.949       9.112
  N      -54.698    -108.431       9.350
  C      -54.812    -107.099       9.728
  O      -53.854    -106.339       9.879
  N      -56.080    -106.665      10.005
  C      -57.209    -107.432      10.024
  O      -58.297    -107.009      10.393
  C      -57.028    -108.836       9.611
  C      -55.799    -109.261       9.300
  O      -55.773    -112.739      11.476
  O      -55.767    -112.757       8.912
  H      -52.882    -107.631      11.456
  H      -56.734    -112.742      11.306
  H      -56.187    -105.694      10.271
  H      -57.902    -109.471       9.597
  H      -55.639    -110.295       9.014
  H      -52.789    -108.229       8.507
  H      -53.207    -109.827      11.109
  H      -51.008    -110.739      10.646
  H      -51.562    -111.059       7.905
  H      -53.060    -112.883       8.406
  H      -51.777    -112.914       9.620
  P      -49.108    -109.045       9.970
  C      -47.308    -110.326       8.578
  O      -48.177    -110.315       9.688
  O      -49.566    -109.229      11.497
  O      -48.517    -107.704       9.683
  H      -50.152    -109.993      11.627
  H      -46.913    -109.331       8.364
  H      -47.845    -110.698       7.704
  H      -46.473    -111.002       8.789
  H      -53.615    -116.068      11.357
  H      -54.231    -114.736      12.305
  H      -52.824    -114.512      11.295

 3  4  5  6  7  8  9  10  11  12  13  23  28  29  30  31  32 0
 6-311+G(2d,p)
 ****
 33  34 0
 6-311+G(2d,p)
 ****
 1  2  14  15  16  17  18  19  20  21  22  24  25  26 0
 3-21G
 ****
 27  35  36  37  38  39  40  41  42  43  44  45 0
 3-21G
 ****


