%nproc=1
%NoSave
%Mem=1900MB
#P OB98/GEN NMR

erre ene a

0 1
  C      -92.372    -112.558    -691.611
  O      -91.180    -112.000    -691.097
  H      -92.776    -111.883    -692.376
  H      -93.114    -112.665    -690.817
  H      -92.177    -113.532    -692.072
  P      -90.303    -112.862    -690.077
  C      -88.184    -111.380    -690.188
  O      -89.264    -111.856    -689.379
  C      -87.483    -110.220    -689.486
  O      -88.403    -109.106    -689.332
  C      -87.013    -110.553    -688.066
  O      -85.845    -111.348    -688.095
  C      -86.819    -109.155    -687.502
  O      -85.559    -108.599    -687.899
  C      -87.983    -108.380    -688.156
  N      -89.098    -108.184    -687.236
  C      -89.119    -106.993    -686.515
  O      -88.255    -106.117    -686.647
  N      -90.128    -106.853    -685.593
  C      -91.015    -107.836    -685.243
  O      -91.728    -107.753    -684.245
  C      -90.990    -109.051    -686.059
  C      -90.046    -109.178    -686.998
  O      -89.687    -114.108    -690.647
  O      -91.319    -113.210    -688.891
  H      -91.631    -114.127    -688.992
  H      -85.655    -108.360    -688.842
  H      -90.112    -106.003    -685.049
  H      -91.719    -109.817    -685.853
  H      -89.985    -110.080    -687.604
  H      -87.646    -107.390    -688.500
  H      -86.857    -109.156    -686.414
  H      -87.810    -111.057    -687.518
  H      -86.645    -109.892    -690.117
  H      -88.591    -111.035    -691.144
  H      -87.485    -112.202    -690.374
  P      -85.552    -112.380    -686.895
  C      -85.394    -114.531    -688.300
  O      -84.690    -113.606    -687.476
  O      -86.752    -112.781    -686.094
  O      -84.495    -111.602    -685.979
  H      -84.792    -111.636    -685.036
  H      -84.724    -115.299    -688.627
  H      -85.792    -114.019    -689.151
  H      -86.194    -114.970    -687.741

 6  7  8  9  10  11  12  13  14  15  16  27  31  32  33  34  35 0
 6-311+G(2d,p)
 ****
 36  37 0
 6-311+G(2d,p)
 ****
 1  2  3  4  5  17  18  19  20  21  22  23  24  25 0
 3-21G
 ****
 26  28  29  30  38  39  40  41  42  43  44  45 0
 3-21G
 ****


