%nproc=1
%NoSave
%Mem=1900MB
#P OB98/GEN NMR

erre ene a

0 1
  C      672.003    1142.857     368.822
  O      672.609    1143.501     369.941
  P      672.671    1142.640     371.296
  C      675.135    1141.965     371.727
  O      673.891    1141.595     371.156
  C      676.157    1140.831     371.604
  O      675.676    1139.637     372.309
  C      676.447    1140.404     370.154
  O      677.829    1140.027     370.098
  C      675.544    1139.190     369.992
  O      675.881    1138.384     368.869
  C      675.731    1138.547     371.367
  N      674.858    1133.529     371.742
  C      675.961    1134.233     371.407
  N      676.122    1135.572     371.330
  C      674.966    1136.201     371.646
  C      673.761    1135.612     372.014
  C      673.729    1134.204     372.060
  N      672.603    1133.487     372.387
  N      672.804    1136.592     372.242
  C      673.407    1137.730     371.950
  N      674.737    1137.546     371.671
  O      671.362    1141.713     371.207
  O      672.690    1143.475     372.530
  H      676.747    1137.960     369.021
  H      670.645    1142.089     371.743
  H      676.845    1133.647     371.169
  H      672.938    1138.701     371.928
  H      676.712    1138.071     371.468
  H      674.508    1139.515     369.854
  H      676.259    1141.199     369.421
  H      677.091    1141.147     372.087
  H      675.007    1142.223     372.777
  H      672.682    1132.481     372.393
  H      671.747    1133.961     372.607
  H      675.512    1142.876     371.230
  P      678.766    1140.703     368.991
  C      680.187    1142.306     370.399
  O      679.060    1142.180     369.549
  O      677.692    1141.016     367.831
  O      679.939    1139.888     368.534
  H      676.928    1141.470     368.199
  H      680.316    1143.364     370.641
  H      681.090    1141.938     369.894
  H      680.025    1141.749     371.325
  H      672.016    1143.517     367.980
  H      670.991    1142.604     369.061
  H      672.547    1141.967     368.585

 3  4  5  6  7  8  9  10  11  12  22  25  29  30  31  32 0
 6-311+G(2d,p)
 ****
 33  36  37 0
 6-311+G(2d,p)
 ****
 1  2  13  14  15  16  17  18  19  20  21  23  24  26 0
 3-21G
 ****
 27  28  34  35  38  39  40  41  42  43  44  45  46  47  48 0
 3-21G
 ****


