%nproc=1
%NoSave
%Mem=1900MB
#P OB98/GEN NMR

erre ene a

0 1
  C      -13.825       2.722      10.222
  O      -13.483       1.771      11.216
  P      -12.140       2.020      12.063
  C      -11.152       4.073      13.327
  O      -12.066       3.596      12.353
  C      -10.529       5.396      12.877
  O       -9.619       5.128      11.779
  C      -11.533       6.445      12.387
  O      -10.995       7.729      12.726
  C      -11.510       6.265      10.881
  O      -11.977       7.414      10.182
  C      -10.038       5.937      10.658
  N       -8.820       6.362       5.769
  C       -9.042       7.347       6.714
  N       -8.853       8.620       6.308
  N       -9.412       7.105       7.944
  C       -9.544       5.783       8.208
  C       -9.392       4.720       7.350
  C       -8.945       4.999       6.004
  O       -8.653       4.156       5.161
  N       -9.699       3.533       7.959
  C       -9.959       3.871       9.206
  N       -9.833       5.218       9.417
  O      -10.988       1.779      10.982
  O      -11.975       1.167      13.281
  H      -12.558       7.917      10.788
  H      -10.664       0.858      11.013
  H       -8.518       6.609       4.842
  H      -10.235       3.190       9.995
  H       -9.407       6.835      10.630
  H      -12.148       5.418      10.600
  H       -8.539       8.878       5.385
  H      -12.533       6.326      12.812
  H       -8.978       9.359       6.990
  H       -9.932       5.795      13.705
  H      -10.352       3.336      13.451
  H      -11.665       4.190      14.286
  P      -12.026       8.916      13.036
  C      -13.950       9.265      14.733
  O      -13.136       8.344      14.036
  O      -12.822       9.067      11.652
  O      -11.393      10.211      13.427
  H      -13.083       9.997      11.524
  H      -14.871       8.761      15.036
  H      -14.208      10.127      14.112
  H      -13.426       9.607      15.629
  H      -14.736       2.427       9.744
  H      -13.042       2.775       9.495
  H      -13.955       3.682      10.677

 3  4  5  6  7  8  9  10  11  12  23  26  30  31 0
 6-311+G(2d,p)
 ****
 33  35  36  37  38 0
 6-311+G(2d,p)
 ****
 1  2  13  14  15  16  17  18  19  20  21  22  24  25 0
 3-21G
 ****
 27  28  29  32  34  39  40  41  42  43  44  45  46  47  48  49 0
 3-21G
 ****


