%nproc=1
%NoSave
%Mem=1900MB
#P OB98/GEN NMR

erre ene a

0 1
  C     -417.640     119.887      85.456
  O     -418.122     121.029      86.127
  H     -417.278     120.187      84.469
  H     -418.456     119.169      85.324
  H     -416.818     119.414      86.000
  P     -418.283     120.978      87.718
  C     -419.771     119.740      89.431
  O     -419.564     120.069      88.060
  C     -421.255     119.537      89.745
  O     -421.817     118.563      88.834
  C     -421.488     119.003      91.162
  O     -421.574     120.005      92.157
  C     -422.813     118.262      91.008
  O     -423.930     119.138      91.221
  C     -422.780     117.782      89.550
  N     -424.347     112.951      90.157
  C     -424.942     114.116      90.602
  N     -426.076     113.970      91.324
  N     -424.456     115.310      90.362
  C     -423.270     115.293      89.719
  C     -422.572     114.196      89.245
  C     -423.152     112.882      89.448
  O     -422.678     111.830      89.060
  N     -421.378     114.567      88.674
  C     -421.316     115.871      88.872
  N     -422.480     116.363      89.429
  O     -418.798     122.452      88.090
  O     -417.036     120.640      88.481
  H     -424.750     118.605      91.164
  H     -418.473     122.699      88.977
  H     -424.778     112.065      90.344
  H     -420.486     116.509      88.596
  H     -423.747     117.941      89.056
  H     -422.897     117.458      91.741
  H     -426.447     113.076      91.608
  H     -420.719     118.271      91.430
  H     -426.438     114.782      91.826
  H     -421.795     120.484      89.578
  H     -419.377     120.579      90.013
  H     -419.195     118.852      89.701
  P     -421.264     119.662      93.692
  C     -421.947     117.770      95.376
  O     -422.049     118.333      94.089
  O     -422.047     120.814      94.490
  O     -419.815     119.620      94.057
  H     -421.439     121.529      94.746
  H     -422.550     116.888      95.428
  H     -422.287     118.478      96.103
  H     -420.927     117.517      95.575

 6  7  8  9  10  11  12  13  14  15  26  29  33  34 0
 6-311+G(2d,p)
 ****
 36  38  39  40  41 0
 6-311+G(2d,p)
 ****
 1  2  3  4  5  16  17  18  19  20  21  22  23  24  25 0
 3-21G
 ****
 27  28  30  31  32  35  37  42  43  44  45  46  47 0
 3-21G
 ****
 48  49 0
 3-21G
 ****


