%nproc=1
%NoSave
%Mem=1900MB
#P OB98/GEN NMR

erre ene a

0 1
  C      -67.613      32.819     -40.667
  O      -68.194      31.532     -40.792
  P      -69.788      31.417     -40.635
  C      -71.803      32.476     -41.885
  O      -70.433      32.586     -41.525
  C      -72.494      33.840     -41.822
  O      -72.500      34.301     -40.442
  C      -71.823      34.934     -42.668
  O      -72.872      35.774     -43.162
  C      -70.977      35.659     -41.637
  O      -70.544      36.944     -42.046
  C      -71.920      35.625     -40.438
  N      -72.450      37.534     -35.727
  C      -73.339      37.350     -36.729
  N      -73.126      36.827     -37.954
  C      -71.840      36.465     -38.098
  C      -70.818      36.607     -37.175
  C      -71.164      37.170     -35.936
  N      -70.252      37.365     -34.918
  N      -69.624      36.147     -37.689
  C      -69.919      35.735     -38.905
  N      -71.249      35.887     -39.188
  O      -70.039      31.915     -39.137
  O      -70.348      30.049     -40.873
  H      -69.930      37.316     -41.382
  H      -70.739      31.390     -38.703
  H      -74.357      37.664     -36.518
  H      -69.212      35.334     -39.618
  H      -72.739      36.348     -40.539
  H      -70.076      35.066     -41.436
  H      -71.253      34.539     -43.515
  H      -73.539      33.712     -42.128
  H      -72.309      31.803     -41.186
  H      -70.552      37.953     -34.155
  H      -69.271      37.285     -35.158
  H      -71.881      32.041     -42.887
  P      -72.606      36.656     -44.476
  C      -71.933      36.011     -46.870
  O      -71.951      35.618     -45.512
  O      -71.328      37.505     -44.019
  O      -73.756      37.471     -44.958
  H      -70.630      36.933     -43.653
  H      -71.376      35.264     -47.442
  H      -71.439      36.980     -46.978
  H      -72.954      36.064     -47.257
  H      -66.553      32.746     -40.793
  H      -67.830      33.216     -39.697
  H      -68.017      33.467     -41.416

 3  4  5  6  7  8  9  10  11  12  22  25  29  30  31  32 0
 6-311+G(2d,p)
 ****
 33  36  37 0
 6-311+G(2d,p)
 ****
 1  2  13  14  15  16  17  18  19  20  21  23  24  26 0
 3-21G
 ****
 27  28  34  35  38  39  40  41  42  43  44  45  46  47  48 0
 3-21G
 ****


