%nproc=1
%NoSave
%Mem=1900MB
#P OB98/GEN NMR

erre ene a

0 1
  C     -129.613     -76.079    -329.552
  O     -130.897     -75.787    -330.077
  P     -130.975     -75.156    -331.551
  C     -131.850     -72.712    -331.339
  O     -130.724     -73.577    -331.383
  C     -132.321     -72.531    -329.896
  O     -131.193     -72.300    -329.015
  C     -133.243     -71.336    -329.686
  O     -134.585     -71.623    -330.050
  C     -133.135     -71.138    -328.181
  O     -133.977     -72.090    -327.494
  C     -131.651     -71.458    -327.922
  N     -129.593     -68.035    -324.817
  C     -130.219     -69.232    -324.518
  N     -130.375     -69.526    -323.211
  N     -130.657     -70.068    -325.428
  C     -130.450     -69.634    -326.701
  C     -129.839     -68.471    -327.114
  C     -129.372     -67.551    -326.095
  O     -128.861     -66.451    -326.294
  N     -129.802     -68.385    -328.477
  C     -130.384     -69.492    -328.900
  N     -130.830     -70.260    -327.853
  O     -132.538     -75.241    -331.900
  O     -130.132     -75.845    -332.571
  H     -134.893     -71.908    -327.786
  H     -132.669     -75.137    -332.866
  H     -129.284     -67.425    -324.072
  H     -130.515     -69.771    -329.937
  H     -131.512     -72.029    -327.000
  H     -133.449     -70.144    -327.857
  H     -130.114     -68.904    -322.459
  H     -132.867     -70.440    -330.199
  H     -130.883     -70.370    -322.963
  H     -132.810     -73.464    -329.577
  H     -132.657     -73.140    -331.930
  H     -131.574     -71.745    -331.771
  P     -135.614     -70.390    -330.062
  C     -137.281     -70.543    -328.071
  O     -135.997     -70.145    -328.525
  O     -136.939     -71.028    -330.694
  O     -135.131     -69.197    -330.821
  H     -137.474     -70.336    -331.132
  H     -137.279     -70.552    -326.973
  H     -137.529     -71.547    -328.424
  H     -138.038     -69.828    -328.419
  H     -129.715     -76.491    -328.570
  H     -129.035     -75.180    -329.503
  H     -129.121     -76.786    -330.186

 3  4  5  6  7  8  9  10  11  12  23  26  30  31 0
 6-311+G(2d,p)
 ****
 33  35  36  37  38 0
 6-311+G(2d,p)
 ****
 1  2  13  14  15  16  17  18  19  20  21  22  24  25 0
 3-21G
 ****
 27  28  29  32  34  39  40  41  42  43  44  45  46  47  48  49 0
 3-21G
 ****


