%nproc=1
%NoSave
%Mem=1900MB
#P OB98/GEN NMR

erre ene a

0 1
  C       91.223     233.661    -258.835
  O       90.678     234.410    -259.904
  H       91.575     234.349    -258.066
  H       92.068     233.064    -259.190
  H       90.460     233.007    -258.400
  P       89.938     233.582    -261.063
  C       87.654     233.143    -259.843
  O       88.889     232.631    -260.313
  C       86.503     232.701    -260.753
  O       86.274     231.282    -260.553
  C       85.189     233.432    -260.479
  O       84.507     233.612    -261.725
  C       84.413     232.446    -259.621
  O       83.006     232.671    -259.682
  C       84.887     231.104    -260.204
  N       84.703     229.998    -259.269
  C       83.393     229.564    -259.057
  O       82.453     230.120    -259.631
  N       83.163     228.546    -258.168
  C       84.154     228.042    -257.494
  N       83.860     227.051    -256.615
  C       85.549     228.497    -257.655
  C       85.749     229.457    -258.558
  O       91.093     232.580    -261.536
  O       89.364     234.426    -262.157
  H       82.819     233.571    -259.343
  H       91.576     232.172    -260.801
  H       86.339     228.054    -257.068
  H       86.743     229.845    -258.744
  H       84.338     230.869    -261.127
  H       84.722     232.535    -258.575
  H       85.331     234.397    -259.994
  H       86.817     232.828    -261.795
  H       82.887     226.787    -256.519
  H       87.686     234.238    -259.806
  H       84.538     226.626    -255.999
  H       87.498     232.772    -258.826
  P       84.164     235.097    -262.228
  C       86.557     235.630    -263.051
  O       85.491     235.990    -262.179
  O       82.949     235.719    -261.625
  O       83.951     234.887    -263.808
  H       83.189     235.435    -264.081
  H       87.374     236.307    -262.914
  H       86.220     235.679    -264.065
  H       86.878     234.634    -262.830

 6  7  8  9  10  11  12  13  14  15  16  26  30  31  32  33  35 0
 6-311+G(2d,p)
 ****
 37  38 0
 6-311+G(2d,p)
 ****
 1  2  3  4  5  17  18  19  20  21  22  23  24  25 0
 3-21G
 ****
 27  28  29  34  36  39  40  41  42  43  44  45  46 0
 3-21G
 ****


