%nproc=1
%NoSave
%Mem=1900MB
#P OB98/GEN NMR

erre ene a

0 1
  C        8.580    -145.222    -258.156
  O        9.283    -145.164    -256.910
  P        9.259    -143.772    -256.114
  C       11.714    -143.778    -255.234
  O       10.324    -143.851    -254.921
  C       12.538    -144.475    -254.146
  O       12.753    -145.861    -254.471
  C       13.927    -143.878    -253.977
  O       13.870    -142.673    -253.239
  C       14.667    -145.005    -253.264
  O       14.559    -144.888    -251.834
  C       13.944    -146.276    -253.770
  N       14.787    -147.107    -254.610
  C       15.818    -147.793    -253.952
  O       15.980    -147.654    -252.738
  N       16.650    -148.594    -254.696
  C       16.485    -148.685    -255.975
  N       17.342    -149.491    -256.658
  C       15.428    -147.956    -256.713
  C       14.625    -147.190    -255.972
  O        7.850    -143.806    -255.354
  O        9.383    -142.569    -256.995
  H       15.132    -145.593    -251.469
  H        7.489    -142.905    -255.274
  H       15.336    -148.055    -257.785
  H       13.822    -146.619    -256.432
  H       13.607    -146.886    -252.919
  H       15.737    -144.994    -253.502
  H       14.381    -143.703    -254.961
  H       11.984    -144.417    -253.197
  H       18.058    -149.970    -256.122
  H       12.023    -142.733    -255.326
  H       17.310    -149.626    -257.661
  H       11.878    -144.242    -256.212
  P       14.134    -141.305    -254.013
  C       15.973    -140.356    -252.490
  O       14.619    -140.269    -252.887
  O       12.640    -140.794    -254.314
  O       14.959    -141.368    -255.257
  H       12.667    -139.999    -254.880
  H       16.219    -139.479    -251.886
  H       16.628    -140.381    -253.361
  H       16.122    -141.257    -251.883
  H        8.678    -146.201    -258.576
  H        8.991    -144.501    -258.832
  H        7.545    -145.007    -257.992

 3  4  5  6  7  8  9  10  11  12  13  21  23  27  28  29  30  32 0
 6-311+G(2d,p)
 ****
 34  35 0
 6-311+G(2d,p)
 ****
 1  2  14  15  16  17  18  19  20  22  24  25  26 0
 3-21G
 ****
 31  33  36  37  38  39  40  41  42  43  44  45  46 0
 3-21G
 ****


