%nproc=1
%NoSave
%Mem=1900MB
#P OB98/GEN NMR

erre ene a

0 1
  C      873.655    -573.773    1007.527
  O      872.827    -574.917    1007.474
  H      874.703    -574.086    1007.594
  H      873.417    -573.180    1008.416
  H      873.535    -573.156    1006.630
  P      871.277    -574.677    1007.139
  C      870.842    -574.437    1009.690
  O      870.657    -573.884    1008.395
  C      870.243    -573.496    1010.749
  O      870.930    -572.216    1010.670
  C      868.740    -573.214    1010.551
  O      868.140    -573.106    1011.836
  C      868.730    -571.855    1009.871
  O      867.511    -571.141    1010.041
  C      869.928    -571.180    1010.549
  N      870.436    -570.037    1009.801
  C      869.728    -568.855    1009.881
  O      868.727    -568.674    1010.604
  N      870.171    -567.833    1009.087
  C      871.226    -567.887    1008.215
  O      871.570    -566.953    1007.510
  C      871.948    -569.174    1008.161
  C      871.518    -570.181    1008.949
  O      870.660    -576.152    1007.282
  O      870.985    -574.065    1005.808
  H      870.698    -576.622    1006.429
  H      867.680    -570.217    1009.756
  H      869.659    -566.968    1009.137
  H      872.771    -569.269    1007.486
  H      872.017    -571.148    1008.918
  H      869.655    -570.857    1011.571
  H      868.913    -571.976    1008.796
  H      868.226    -573.978    1009.955
  H      870.438    -573.915    1011.730
  H      871.930    -574.547    1009.883
  H      870.371    -575.427    1009.741
  P      867.171    -574.307    1012.294
  C      865.006    -572.826    1012.126
  O      865.740    -573.976    1011.672
  O      867.011    -573.985    1013.878
  O      867.735    -575.658    1011.988
  H      866.995    -573.031    1014.050
  H      864.076    -572.766    1011.600
  H      865.579    -571.941    1011.941
  H      864.817    -572.915    1013.175

 6  7  8  9  10  11  12  13  14  15  16  27  31  32  33  34  35 0
 6-311+G(2d,p)
 ****
 36  37 0
 6-311+G(2d,p)
 ****
 1  2  3  4  5  17  18  19  20  21  22  23  24  25 0
 3-21G
 ****
 26  28  29  30  38  39  40  41  42  43  44  45 0
 3-21G
 ****


