%nproc=1
%NoSave
%Mem=1900MB
#P OB98/GEN NMR

erre ene a

0 1
  C     -162.084     596.073     477.340
  O     -161.315     595.855     478.512
  H     -161.948     597.112     477.026
  H     -163.145     595.913     477.554
  H     -161.756     595.411     476.530
  P     -161.217     594.361     479.103
  C     -159.027     595.201     480.188
  O     -160.209     594.423     480.337
  C     -158.332     595.375     481.533
  O     -158.274     594.111     482.239
  C     -156.893     595.854     481.423
  O     -156.832     597.230     481.133
  C     -156.362     595.461     482.797
  O     -156.734     596.439     483.790
  C     -157.081     594.125     483.044
  N     -156.239     592.954     482.761
  C     -155.335     592.596     483.761
  O     -155.212     593.206     484.821
  N     -154.560     591.499     483.481
  C     -154.517     590.822     482.293
  O     -153.733     589.906     482.063
  C     -155.468     591.277     481.262
  C     -156.272     592.305     481.541
  O     -160.931     593.286     478.098
  O     -162.641     594.145     479.805
  H     -156.265     597.265     483.546
  H     -163.189     593.560     479.252
  H     -153.892     591.220     484.183
  H     -155.473     590.760     480.320
  H     -156.990     592.646     480.804
  H     -157.408     594.060     484.094
  H     -155.268     595.393     482.808
  H     -156.360     595.271     480.666
  H     -158.935     596.074     482.139
  H     -159.305     596.186     479.781
  H     -158.364     594.702     479.459
  P     -155.448     597.889     480.655
  C     -156.964     599.553     479.425
  O     -155.760     599.385     480.146
  O     -154.638     597.052     479.719
  O     -154.650     598.136     482.026
  H     -153.818     597.630     482.011
  H     -157.068     600.579     479.138
  H     -157.791     599.269     480.041
  H     -156.944     598.938     478.549

 6  7  8  9  10  11  12  13  14  15  16  26  31  32  33  34  35 0
 6-311+G(2d,p)
 ****
 36  37 0
 6-311+G(2d,p)
 ****
 1  2  3  4  5  17  18  19  20  21  22  23  24  25 0
 3-21G
 ****
 27  28  29  30  38  39  40  41  42  43  44  45 0
 3-21G
 ****


