%nproc=1
%NoSave
%Mem=1900MB
#P OB98/GEN NMR

erre ene a

0 1
  C      101.645    -177.152     439.653
  O      100.552    -177.054     440.577
  P       99.375    -178.137     440.404
  C       97.541    -176.534     439.502
  O       97.968    -177.375     440.566
  C       96.372    -175.638     439.921
  O       95.264    -176.467     440.349
  C       96.683    -174.670     441.069
  O       95.992    -173.437     440.828
  C       96.025    -175.331     442.270
  O       95.738    -174.398     443.308
  C       94.798    -175.949     441.606
  N       91.868    -176.996     445.595
  C       92.163    -175.778     445.014
  N       91.619    -174.684     445.590
  N       92.927    -175.647     443.957
  C       93.373    -176.827     443.467
  C       93.143    -178.096     443.949
  C       92.332    -178.224     445.142
  O       92.075    -179.267     445.736
  N       93.773    -179.046     443.181
  C       94.384    -178.353     442.244
  N       94.182    -177.003     442.380
  O       99.497    -179.017     441.738
  O       99.509    -178.981     439.181
  H       95.174    -173.701     442.918
  H       99.615    -179.959     441.503
  H       91.292    -177.038     446.420
  H       95.009    -178.769     441.463
  H       94.034    -175.189     441.397
  H       96.699    -176.098     442.673
  H       90.971    -174.720     446.363
  H       97.749    -174.475     441.222
  H       91.788    -173.786     445.150
  H       96.036    -175.081     439.036
  H       97.234    -177.154     438.655
  H       98.392    -175.924     439.177
  P       96.757    -172.353     439.922
  C       98.210    -171.012     441.611
  O       97.009    -171.087     440.872
  O       95.624    -171.853     438.911
  O       97.957    -172.889     439.210
  H       96.024    -171.539     438.078
  H       98.942    -171.760     441.293
  H       97.983    -171.164     442.671
  H       98.645    -170.018     441.479
  H      102.361    -176.385     439.865
  H      101.280    -177.033     438.654
  H      102.110    -178.111     439.751

 3  4  5  6  7  8  9  10  11  12  23  26  30  31  33  0
 6-311+G(2d,p)
 ****
 35  36  37  38 0
 6-311+G(2d,p)
 ****
 1  2  13  14  15  16  17  18  19  20  21  22  24  25  27  28  29 0
 3-21G
 ****
 32  34  39  40  41  42  43  44  45  46  47  48  49 0
 3-21G
 ****


