%nproc=1
%NoSave
%Mem=1900MB
#P OB98/GEN NMR

erre ene a

0 1
  C      -39.439    -307.788    1363.888
  O      -38.029    -307.806    1363.827
  H      -39.741    -307.187    1364.750
  H      -39.830    -308.801    1364.005
  H      -39.853    -307.330    1362.978
  P      -37.367    -308.486    1362.532
  C      -35.419    -307.823    1360.895
  O      -36.083    -307.604    1362.139
  C      -34.813    -306.511    1360.399
  O      -35.805    -305.460    1360.364
  C      -33.716    -305.955    1361.275
  O      -32.520    -306.708    1361.207
  C      -33.596    -304.540    1360.718
  O      -32.830    -304.530    1359.501
  C      -35.083    -304.207    1360.437
  N      -35.653    -303.293    1361.447
  C      -35.675    -301.937    1361.098
  O      -35.243    -301.558    1360.019
  N      -36.144    -301.035    1362.013
  C      -36.593    -301.453    1363.169
  N      -37.049    -300.524    1364.040
  C      -36.613    -302.879    1363.552
  C      -36.132    -303.737    1362.659
  O      -38.415    -308.134    1361.374
  O      -37.056    -309.950    1362.668
  H      -32.838    -303.599    1359.182
  H      -38.615    -307.192    1361.318
  H      -37.002    -303.190    1364.525
  H      -36.102    -304.809    1362.875
  H      -35.191    -303.715    1359.450
  H      -33.100    -303.868    1361.414
  H      -34.069    -305.877    1362.313
  H      -34.464    -306.663    1359.364
  H      -36.994    -299.548    1363.745
  H      -36.104    -308.243    1360.151
  H      -37.391    -300.716    1364.979
  H      -34.626    -308.561    1361.072
  P      -31.890    -307.368    1362.521
  C      -30.864    -309.644    1363.149
  O      -31.461    -308.853    1362.123
  O      -32.736    -307.272    1363.757
  O      -30.469    -306.622    1362.666
  H      -29.876    -306.747    1361.922
  H      -30.623    -310.611    1362.759
  H      -31.550    -309.748    1363.964
  H      -29.971    -309.166    1363.494

 6  7  8  9  10  11  12  13  14  15  16  26  30  31  32  33  35 0
 6-311+G(2d,p)
 ****
 37  38 0
 6-311+G(2d,p)
 ****
 1  2  3  4  5  17  18  19  20  21  22  23  24  25 0
 3-21G
 ****
 27  28  29  34  36  39  40  41  42  43  44  45  46 0
 3-21G
 ****


