%nproc=1
%NoSave
%Mem=1900MB
#P OB98/GEN NMR

erre ene a

0 1
  C     -291.389     188.019     -25.867
  O     -292.291     188.031     -24.785
  P     -293.769     187.430     -24.851
  C     -294.867     189.736     -25.428
  O     -294.661     188.374     -25.795
  C     -296.357     190.105     -25.489
  O     -296.799     190.022     -26.871
  C     -297.214     189.107     -24.685
  O     -298.250     189.712     -23.923
  C     -297.631     188.088     -25.744
  O     -298.775     187.327     -25.377
  C     -297.777     188.974     -26.977
  N     -300.033     186.962     -31.075
  C     -300.567     187.795     -30.103
  N     -301.904     187.963     -30.144
  N     -299.851     188.372     -29.177
  C     -298.545     188.023     -29.202
  C     -297.900     187.210     -30.109
  C     -298.692     186.601     -31.149
  O     -298.291     185.762     -31.955
  N     -296.579     187.023     -29.778
  C     -296.433     187.690     -28.653
  N     -297.598     188.292     -28.249
  O     -294.363     186.961     -23.567
  O     -293.553     186.131     -25.791
  H     -298.984     186.737     -26.120
  H     -294.174     185.446     -25.479
  H     -300.654     186.478     -31.722
  H     -295.512     187.760     -28.083
  H     -298.770     189.435     -27.022
  H     -296.809     187.384     -25.858
  H     -302.502     187.416     -30.755
  H     -296.612     188.603     -23.927
  H     -302.341     188.357     -29.317
  H     -296.485     191.138     -25.150
  H     -294.304     190.342     -26.149
  H     -294.456     189.933     -24.433
  P     -298.779     189.335     -22.462
  C     -300.609     187.776     -23.380
  O     -299.477     187.900     -22.528
  O     -300.015     190.317     -22.205
  O     -297.767     189.482     -21.376
  H     -299.999     190.616     -21.266
  H     -301.139     186.859     -23.138
  H     -300.266     187.726     -24.422
  H     -301.280     188.627     -23.258
  H     -290.470     188.479     -25.570
  H     -291.810     188.560     -26.688
  H     -291.202     187.008     -26.164

 3  4  5  6  7  8  9  10  11  12  23  26  30  31 0
 6-311+G(2d,p)
 ****
 33  35  36  37  38 0
 6-311+G(2d,p)
 ****
 1  2  13  14  15  16  17  18  19  20  21  22  24  25 0
 3-21G
 ****
 27  28  29  32  34  39  40  41  42  43  44  45  46  47  48  49 0
 3-21G
 ****


