%nproc=1
%NoSave
%Mem=1900MB
#P OB98/GEN NMR

erre ene a

0 1
  C      -22.080       5.112      51.749
  O      -21.619       5.738      52.936
  P      -20.252       5.200      53.581
  C      -18.934       7.298      52.838
  O      -19.057       5.885      52.754
  C      -17.472       7.721      52.771
  O      -16.726       6.999      53.789
  C      -16.795       7.442      51.419
  O      -15.995       8.573      51.050
  C      -15.852       6.292      51.725
  O      -14.750       6.251      50.826
  C      -15.482       6.613      53.173
  N      -11.909       3.050      52.997
  C      -12.092       4.156      52.192
  N      -11.232       4.297      51.159
  N      -13.034       5.042      52.376
  C      -13.801       4.790      53.465
  C      -13.712       3.735      54.344
  C      -12.702       2.730      54.091
  O      -12.546       1.682      54.714
  N      -14.655       3.832      55.335
  C      -15.315       4.938      55.057
  N      -14.866       5.530      53.903
  O      -20.214       3.671      53.109
  O      -20.160       5.311      55.063
  H      -14.295       7.112      50.892
  H      -20.137       3.088      53.889
  H      -11.178       2.390      52.799
  H      -16.140       5.330      55.637
  H      -14.801       7.473      53.212
  H      -16.401       5.347      51.648
  H      -10.463       3.673      50.980
  H      -17.491       7.203      50.610
  H      -11.336       5.114      50.570
  H      -17.405       8.786      53.024
  H      -19.364       7.641      53.786
  H      -19.495       7.751      52.014
  P      -16.005       8.963      49.492
  C      -17.880      10.743      49.803
  O      -17.470       9.533      49.196
  O      -15.991       7.543      48.756
  O      -14.866       9.834      49.078
  H      -15.616       7.628      47.859
  H      -17.052      11.254      50.304
  H      -18.658      10.527      50.537
  H      -18.288      11.405      49.035
  H      -22.995       5.571      51.436
  H      -22.248       4.072      51.936
  H      -21.345       5.221      50.979

 3  4  5  6  7  8  9  10  11  12  23  26  30  31  33  0
 6-311+G(2d,p)
 ****
 35  36  37  38 0
 6-311+G(2d,p)
 ****
 1  2  13  14  15  16  17  18  19  20  21  22  24  25  27  28  29 0
 3-21G
 ****
 32  34  39  40  41  42  43  44  45  46  47  48  49 0
 3-21G
 ****


