%nproc=1
%NoSave
%Mem=1900MB
#P OB98/GEN NMR

erre ene a

0 1
  C     -386.519    -899.510     -82.627
  O     -386.331    -898.120     -82.638
  H     -385.547    -900.000     -82.643
  H     -387.086    -899.820     -83.506
  H     -387.049    -899.830     -81.719
  P     -387.573    -897.150     -82.329
  C     -388.243    -896.890     -84.802
  O     -388.629    -897.370     -83.528
  C     -389.471    -896.750     -85.718
  O     -390.454    -895.900     -85.049
  C     -389.163    -896.110     -87.084
  O     -390.080    -896.660     -88.026
  C     -389.491    -894.650     -86.813
  O     -389.666    -893.930     -88.020
  C     -390.724    -894.790     -85.920
  N     -391.031    -893.560     -85.183
  C     -391.441    -892.460     -85.930
  O     -391.513    -892.480     -87.161
  N     -391.694    -891.320     -85.232
  C     -391.559    -891.170     -83.877
  O     -391.777    -890.110     -83.308
  C     -391.074    -892.350     -83.143
  C     -390.857    -893.490     -83.819
  O     -387.232    -895.730     -82.049
  O     -388.308    -897.850     -81.082
  H     -388.845    -893.970     -88.563
  H     -388.743    -897.180     -80.529
  H     -392.005    -890.520     -85.754
  H     -390.937    -892.250     -82.076
  H     -390.508    -894.370     -83.303
  H     -391.614    -895.040     -86.525
  H     -388.676    -894.160     -86.264
  H     -388.135    -896.260     -87.411
  H     -389.937    -897.730     -85.838
  H     -387.539    -897.600     -85.244
  H     -387.751    -895.910     -84.693
  P     -389.625    -897.710     -89.157
  C     -389.994    -896.020     -91.079
  O     -389.068    -896.890     -90.428
  O     -390.652    -898.740     -89.490
  O     -388.305    -898.400     -88.551
  H     -388.215    -899.300     -88.917
  H     -389.510    -895.535     -91.901
  H     -390.340    -895.283     -90.384
  H     -390.825    -896.589     -91.439

 6  7  8  9  10  11  12  13  14  15  16  26  31  32  33  34  35 0
 6-311+G(2d,p)
 ****
 36  37 0
 6-311+G(2d,p)
 ****
 1  2  3  4  5  17  18  19  20  21  22  23  24  25 0
 3-21G
 ****
 27  28  29  30  38  39  40  41  42  43  44  45 0
 3-21G
 ****


