%nproc=1
%NoSave
%Mem=1900MB
#P OB98/GEN NMR

erre ene a

0 1
  C     -225.640     462.740     360.590
  O     -224.416     462.256     360.075
  H     -226.235     463.139     359.764
  H     -225.457     463.540     361.311
  H     -226.194     461.928     361.068
  P     -223.345     461.727     361.150
  C     -221.976     462.971     362.989
  O     -222.837     463.074     361.865
  C     -222.194     464.154     363.925
  O     -223.549     464.158     364.429
  C     -221.304     464.155     365.165
  O     -219.978     464.582     364.905
  C     -222.060     465.149     366.029
  O     -221.831     466.483     365.541
  C     -223.518     464.705     365.778
  N     -223.988     463.711     366.746
  C     -224.870     464.164     367.734
  O     -225.217     465.343     367.773
  N     -225.311     463.274     368.684
  C     -224.926     462.036     368.641
  N     -225.394     461.205     369.612
  C     -224.009     461.515     367.613
  C     -223.584     462.392     366.708
  O     -222.089     461.314     360.248
  O     -223.821     460.662     362.080
  H     -222.246     466.532     364.660
  H     -221.313     461.110     360.826
  H     -223.707     460.476     367.626
  H     -222.907     462.081     365.920
  H     -224.199     465.562     365.800
  H     -221.753     465.135     367.074
  H     -221.307     463.179     365.663
  H     -222.061     465.072     363.339
  H     -225.973     461.606     370.336
  H     -220.941     462.962     362.628
  H     -225.037     460.268     369.751
  H     -222.170     462.039     363.528
  P     -218.812     463.969     365.824
  C     -218.250     464.164     368.358
  O     -218.857     464.758     367.219
  O     -217.479     464.515     365.134
  O     -218.820     462.476     365.935
  H     -216.755     463.862     365.208
  H     -218.366     464.811     369.202
  H     -217.209     464.009     368.167
  H     -218.719     463.224     368.563

 6  7  8  9  10  11  12  13  14  15  16  26  30  31  32  33  35 0
 6-311+G(2d,p)
 ****
 37  38 0
 6-311+G(2d,p)
 ****
 1  2  3  4  5  17  18  19  20  21  22  23  24  25 0
 3-21G
 ****
 27  28  29  34  36  39  40  41  42  43  44  45  46 0
 3-21G
 ****


