%nproc=1
%NoSave
%Mem=1900MB
#P OB98/GEN NMR

erre ene a

0 1
  C      181.674     -48.696    -265.171
  O      180.763     -47.776    -265.732
  P      179.270     -47.631    -265.169
  C      178.333     -49.035    -267.119
  O      178.453     -48.910    -265.707
  C      177.021     -49.738    -267.482
  O      177.085     -51.119    -267.015
  C      175.787     -49.080    -266.836
  O      174.742     -48.745    -267.748
  C      175.411     -50.069    -265.744
  O      174.070     -49.959    -265.302
  C      175.823     -51.401    -266.381
  N      175.919     -52.482    -265.402
  C      174.723     -53.012    -264.923
  O      173.607     -52.643    -265.274
  N      174.839     -53.969    -263.955
  C      175.996     -54.361    -263.346
  O      176.016     -55.150    -262.419
  C      177.222     -53.738    -263.864
  C      177.132     -52.859    -264.867
  O      178.611     -46.324    -265.438
  O      179.435     -47.974    -263.613
  H      173.931     -50.631    -264.605
  H      179.787     -48.863    -263.423
  H      173.980     -54.365    -263.599
  H      178.155     -54.016    -263.394
  H      178.024     -52.382    -265.270
  H      175.124     -51.705    -267.161
  H      176.051     -49.868    -264.875
  H      176.049     -48.114    -266.374
  H      176.937     -49.742    -268.575
  H      179.174     -49.628    -267.492
  H      178.395     -48.043    -267.588
  P      173.698     -47.549    -267.562
  C      171.608     -48.862    -266.738
  O      172.659     -47.971    -266.420
  O      173.083     -47.035    -268.813
  O      174.567     -46.403    -266.849
  H      174.215     -45.529    -267.088
  H      170.759     -48.652    -266.077
  H      171.941     -49.890    -266.567
  H      171.285     -48.747    -267.775
  H      182.608     -48.634    -265.689
  H      181.281     -49.687    -265.261
  H      181.824     -48.464    -264.137

 3  4  5  6  7  8  9  10  11  12  13  23  28  29  30  31  32 0
 6-311+G(2d,p)
 ****
 33  34 0
 6-311+G(2d,p)
 ****
 1  2  14  15  16  17  18  19  20  21  22  24  25  26  27 0
 3-21G
 ****
 35  36  37  38  39  40  41  42  43  44  45 0
 3-21G
 ****


