%nproc=1
%NoSave
%Mem=1900MB
#P OB98/GEN NMR

erre ene a

0 1
  C       92.483    -319.965     284.057
  O       93.383    -320.952     284.507
  H       91.530    -320.102     284.576
  H       92.308    -320.071     282.984
  H       92.865    -318.965     284.279
  P       94.859    -321.020     283.876
  C       97.021    -320.595     285.195
  O       95.832    -321.371     285.111
  C       97.482    -320.453     286.645
  O       96.612    -319.524     287.346
  C       97.473    -321.776     287.430
  O       98.699    -321.923     288.147
  C       96.326    -321.599     288.415
  O       96.454    -322.412     289.575
  C       96.378    -320.086     288.650
  N       95.158    -319.584     289.266
  C       94.992    -319.855     290.629
  O       95.858    -320.484     291.241
  N       93.837    -319.462     291.245
  C       92.900    -318.887     290.556
  N       91.767    -318.549     291.222
  C       93.022    -318.606     289.109
  C       94.165    -318.970     288.534
  O       95.251    -319.817     283.086
  O       94.877    -322.368     283.018
  H       96.630    -323.335     289.289
  H       95.588    -322.307     282.338
  H       92.207    -318.128     288.575
  H       94.342    -318.808     287.476
  H       97.232    -319.818     289.292
  H       95.382    -321.864     287.919
  H       97.324    -322.647     286.794
  H       98.482    -319.997     286.649
  H       91.724    -318.766     292.213
  H       96.824    -319.608     284.758
  H       90.965    -318.121     290.788
  H       97.803    -321.096     284.617
  P       99.370    -323.383     288.115
  C      101.836    -324.186     288.049
  O      100.911    -323.229     288.540
  O       99.431    -323.725     286.553
  O       98.598    -324.407     288.874
  H       98.792    -324.434     286.346
  H      102.815    -323.955     288.414
  H      101.839    -324.163     286.979
  H      101.551    -325.162     288.384

 6  7  8  9  10  11  12  13  14  15  16  26  30  31  32  33  35 0
 6-311+G(2d,p)
 ****
 37  38 0
 6-311+G(2d,p)
 ****
 1  2  3  4  5  17  18  19  20  21  22  23  24  25 0
 3-21G
 ****
 27  28  29  34  36  39  40  41  42  43  44  45  46 0
 3-21G
 ****


