%nproc=1
%NoSave
%Mem=1900MB
#P OB98/GEN NMR

erre ene a

0 1
  C      298.567    -391.851       7.513
  O      297.464    -391.786       6.626
  P      297.678    -391.763       5.041
  C      295.228    -392.051       4.147
  O      296.346    -391.217       4.359
  C      294.244    -391.335       3.209
  O      293.422    -390.417       3.964
  C      294.971    -390.538       2.129
  O      295.093    -391.306       0.944
  C      294.091    -389.313       1.975
  O      292.969    -389.602       1.124
  C      293.618    -389.079       3.430
  N      294.516    -388.346       4.345
  C      294.686    -386.975       4.182
  O      294.107    -386.307       3.328
  N      295.588    -386.386       5.035
  C      296.272    -387.017       6.039
  O      297.236    -386.541       6.625
  C      295.842    -388.389       6.328
  C      295.014    -388.986       5.470
  O      297.680    -393.319       4.665
  O      298.915    -391.072       4.572
  H      292.442    -388.787       1.049
  H      298.594    -393.650       4.565
  H      295.825    -385.418       4.837
  H      296.250    -388.883       7.196
  H      294.712    -390.019       5.644
  H      292.650    -388.568       3.449
  H      294.629    -388.504       1.495
  H      295.955    -390.220       2.495
  H      293.581    -392.081       2.754
  H      294.746    -392.286       5.099
  H      295.549    -393.000       3.698
  P      296.548    -391.623       0.352
  C      295.603    -393.616      -0.962
  O      296.287    -392.378      -1.037
  O      297.482    -392.313       1.288
  O      297.093    -390.180      -0.079
  H      297.676    -389.824       0.628
  H      295.327    -393.927      -1.971
  H      294.697    -393.519      -0.357
  H      296.264    -394.368      -0.517
  H      298.213    -391.856       8.523
  H      299.198    -391.000       7.361
  H      299.123    -392.746       7.325

 3  4  5  6  7  8  9  10  11  12  13  23  28  29  30  31  32 0
 6-311+G(2d,p)
 ****
 33  34 0
 6-311+G(2d,p)
 ****
 1  2  14  15  16  17  18  19  20  21  22  24  25  26  27 0
 3-21G
 ****
 35  36  37  38  39  40  41  42  43  44  45 0
 3-21G
 ****


