%nproc=1
%NoSave
%Mem=1900MB
#P OB98/GEN NMR

erre ene a

0 1
  C     -109.073     404.446    -331.512
  O     -108.555     405.634    -332.074
  H     -108.586     404.278    -330.548
  H     -108.854     403.597    -332.165
  H     -110.150     404.529    -331.351
  P     -109.198     406.197    -333.430
  C     -109.400     408.769    -333.331
  O     -108.582     407.660    -333.679
  C     -109.311     409.057    -331.829
  O     -107.930     409.356    -331.498
  C     -110.170     410.246    -331.382
  O     -110.715     409.967    -330.092
  C     -109.170     411.381    -331.281
  O     -109.583     412.386    -330.356
  C     -107.898     410.647    -330.856
  N     -104.860     414.494    -329.629
  C     -105.944     413.966    -328.959
  N     -106.289     414.565    -327.797
  N     -106.638     412.944    -329.390
  C     -106.170     412.435    -330.554
  C     -105.105     412.866    -331.314
  C     -104.361     414.008    -330.835
  O     -103.401     414.528    -331.393
  N     -104.959     412.096    -332.443
  C     -105.929     411.206    -332.365
  N     -106.702     411.376    -331.246
  O     -110.691     406.130    -333.495
  O     -108.522     405.318    -334.582
  H     -110.526     412.579    -330.549
  H     -109.149     404.659    -334.933
  H     -104.368     415.287    -329.257
  H     -106.124     410.425    -333.090
  H     -107.843     410.497    -329.774
  H     -109.042     411.854    -332.263
  H     -105.787     415.341    -327.392
  H     -110.975     410.466    -332.084
  H     -107.063     414.180    -327.270
  H     -109.584     408.145    -331.283
  H     -110.433     408.529    -333.599
  H     -109.082     409.645    -333.904
  P     -112.207     409.377    -329.990
  C     -111.940     407.743    -328.024
  O     -112.498     408.974    -328.463
  O     -112.550     408.327    -330.994
  O     -113.117     410.684    -330.190
  H     -113.930     410.430    -330.673
  H     -112.198     407.580    -326.998
  H     -110.875     407.779    -328.123
  H     -112.327     406.943    -328.620

 6  7  8  9  10  11  12  13  14  15  26  29  33  34 0
 6-311+G(2d,p)
 ****
 36  38  39  40  41 0
 6-311+G(2d,p)
 ****
 1  2  3  4  5  16  17  18  19  20  21  22  23  24  25 0
 3-21G
 ****
 27  28  30  31  32  35  37  42  43  44  45  46  47 0
 3-21G
 ****
 48  49 0
 3-21G
 ****


