%nproc=1
%NoSave
%Mem=1900MB
#P OB98/GEN NMR

erre ene a

0 1
  C      224.039    -365.507     393.623
  O      224.708    -364.506     394.360
  H      223.019    -365.172     393.425
  H      223.997    -366.425     394.218
  H      224.539    -365.703     392.671
  P      226.307    -364.526     394.412
  C      228.094    -365.194     396.146
  O      226.748    -365.343     395.727
  C      228.623    -366.464     396.828
  O      228.006    -366.617     398.127
  C      228.280    -367.726     396.043
  O      229.175    -368.053     394.997
  C      228.312    -368.796     397.145
  O      229.650    -369.277     397.353
  C      227.820    -368.028     398.371
  N      224.169    -371.525     399.111
  C      225.479    -371.712     398.718
  N      225.851    -372.982     398.436
  N      226.342    -370.730     398.604
  C      225.805    -369.507     398.835
  C      224.512    -369.200     399.212
  C      223.586    -370.301     399.393
  O      222.408    -370.189     399.729
  N      224.340    -367.848     399.345
  C      225.496    -367.328     398.981
  N      226.427    -368.300     398.687
  O      226.693    -363.015     394.798
  O      226.987    -364.946     393.140
  H      229.610    -370.061     397.933
  H      227.583    -362.807     394.465
  H      223.557    -372.323     399.216
  H      225.725    -366.267     398.944
  H      228.409    -368.278     399.268
  H      227.703    -369.661     396.884
  H      225.193    -373.747     398.400
  H      227.260    -367.671     395.652
  H      226.706    -373.121     397.895
  H      229.700    -366.369     396.995
  H      228.125    -364.358     396.842
  H      228.735    -364.933     395.294
  P      228.768    -369.145     393.897
  C      229.221    -371.705     393.657
  O      229.123    -370.585     394.517
  O      229.877    -368.936     392.761
  O      227.387    -369.008     393.361
  H      229.518    -368.360     392.054
  H      229.462    -372.575     394.231
  H      229.989    -371.532     392.932
  H      228.286    -371.854     393.158

 6  7  8  9  10  11  12  13  14  15  26  29  33  34 0
 6-311+G(2d,p)
 ****
 36  38  39  40  41 0
 6-311+G(2d,p)
 ****
 1  2  3  4  5  16  17  18  19  20  21  22  23  24  25 0
 3-21G
 ****
 27  28  30  31  32  35  37  42  43  44  45  46  47 0
 3-21G
 ****
 48  49 0
 3-21G
 ****


