%nproc=1
%NoSave
%Mem=1900MB
#P OB98/GEN NMR

erre ene a

0 1
  C      -48.765     191.670     662.584
  O      -48.868     190.249     662.669
  P      -48.976     189.257     661.421
  C      -46.366     188.935     661.414
  O      -47.556     189.217     660.688
  C      -45.118     189.226     660.568
  O      -45.212     188.472     659.317
  C      -44.998     190.713     660.186
  O      -43.676     191.228     660.287
  C      -45.667     190.772     658.820
  O      -45.311     191.910     658.064
  C      -45.274     189.420     658.223
  N      -45.903     187.938     653.376
  C      -44.796     188.477     653.990
  N      -43.713     188.679     653.209
  N      -44.760     188.818     655.246
  C      -45.932     188.654     655.897
  C      -47.107     188.134     655.399
  C      -47.128     187.712     654.011
  O      -48.078     187.201     653.425
  N      -48.084     188.099     656.352
  C      -47.509     188.613     657.431
  N      -46.195     188.957     657.195
  O      -50.181     189.433     660.548
  O      -49.077     187.799     662.099
  H      -45.559     192.705     658.578
  H      -49.631     187.254     661.506
  H      -45.870     187.665     652.404
  H      -47.987     188.747     658.395
  H      -44.291     189.450     657.756
  H      -46.750     190.812     658.981
  H      -43.711     188.547     652.207
  H      -45.567     191.340     660.889
  H      -42.989     189.275     653.607
  H      -44.227     188.877     661.106
  H      -46.404     187.873     661.656
  H      -46.344     189.490     662.355
  P      -42.934     191.845     661.554
  C      -40.734     190.733     660.807
  O      -41.650     190.937     661.881
  O      -43.907     191.541     662.790
  O      -42.649     193.308     661.469
  H      -44.192     192.376     663.191
  H      -40.072     189.905     661.072
  H      -40.146     191.635     660.655
  H      -41.277     190.477     659.899
  H      -48.707     192.083     663.569
  H      -49.626     192.061     662.083
  H      -47.884     191.932     662.035

 3  4  5  6  7  8  9  10  11  12  23  26  30  31 0
 6-311+G(2d,p)
 ****
 33  35  36  37  38 0
 6-311+G(2d,p)
 ****
 1  2  13  14  15  16  17  18  19  20  21  22  24  25 0
 3-21G
 ****
 27  28  29  32  34  39  40  41  42  43  44  45  46  47  48  49 0
 3-21G
 ****


