%nproc=1
%NoSave
%Mem=1900MB
#P OB98/GEN NMR

erre ene a

0 1
  C     -134.221    -410.313      72.135
  O     -132.908    -409.751      72.190
  P     -132.160    -409.466      70.805
  C     -130.354    -411.274      70.300
  O     -131.701    -410.878      70.164
  C     -130.064    -412.600      69.582
  O     -130.192    -412.439      68.141
  C     -128.660    -413.163      69.834
  O     -128.719    -414.581      69.757
  C     -127.883    -412.639      68.639
  O     -126.669    -413.371      68.435
  C     -128.936    -412.789      67.535
  N     -125.677    -411.909      63.779
  C     -125.638    -412.843      64.796
  N     -124.579    -413.692      64.806
  N     -126.543    -412.940      65.739
  C     -127.553    -412.039      65.582
  C     -127.709    -411.072      64.637
  C     -126.691    -410.954      63.621
  O     -126.660    -410.144      62.716
  N     -128.852    -410.332      64.829
  C     -129.398    -410.885      65.905
  N     -128.670    -411.918      66.390
  O     -130.759    -408.806      71.282
  O     -132.893    -408.545      69.887
  H     -126.229    -412.982      67.649
  H     -130.753    -407.864      71.083
  H     -124.941    -411.869      63.105
  H     -130.307    -410.537      66.395
  H     -129.008    -413.815      67.174
  H     -127.615    -411.583      68.791
  H     -123.866    -413.708      64.080
  H     -128.211    -412.867      70.788
  H     -124.549    -414.408      65.525
  H     -130.833    -413.332      69.892
  H     -130.097    -411.387      71.381
  H     -129.700    -410.473      69.936
  P     -128.420    -415.388      71.102
  C     -125.822    -415.286      71.185
  O     -127.060    -414.799      71.701
  O     -127.980    -416.861      70.565
  O     -129.562    -415.471      72.046
  H     -128.159    -417.535      71.247
  H     -125.393    -414.534      70.503
  H     -125.949    -416.234      70.669
  H     -125.131    -415.420      72.041
  H     -134.593    -410.447      73.129
  H     -134.183    -411.259      71.637
  H     -134.869    -409.653      71.597

 3  4  5  6  7  8  9  10  11  12  23  26  30  31 0
 6-311+G(2d,p)
 ****
 33  35  36  37  38 0
 6-311+G(2d,p)
 ****
 1  2  13  14  15  16  17  18  19  20  21  22  24  25 0
 3-21G
 ****
 27  28  29  32  34  39  40  41  42  43  44  45  46  47  48  49 0
 3-21G
 ****


