%nproc=1
%NoSave
%Mem=1900MB
#P OB98/GEN NMR

erre ene a

0 1
  C        2.886      15.179      50.546
  O        2.389      14.089      49.795
  H        2.630      15.025      51.597
  H        2.443      16.120      50.211
  H        3.975      15.229      50.456
  P        2.411      14.203      48.193
  C        4.970      14.064      47.876
  O        3.720      13.396      47.724
  C        6.091      13.065      48.174
  O        6.010      12.621      49.544
  C        6.019      11.796      47.339
  O        6.306      11.989      45.971
  C        6.857      10.821      48.154
  O        8.250      10.896      47.869
  C        6.592      11.303      49.600
  N        5.754      10.370      50.343
  C        6.343       9.152      50.665
  O        7.489       8.843      50.338
  N        5.552       8.269      51.346
  C        4.245       8.463      51.683
  O        3.576       7.614      52.258
  C        3.669       9.760      51.293
  C        4.438      10.642      50.650
  O        2.326      15.592      47.638
  O        1.214      13.251      47.728
  H        8.512      11.833      47.965
  H        0.953      13.437      46.795
  H        5.965       7.385      51.597
  H        2.633       9.947      51.541
  H        4.035      11.606      50.350
  H        7.540      11.407      50.144
  H        6.550       9.787      47.978
  H        4.989      11.422      47.380
  H        7.052      13.574      48.039
  H        4.875      14.759      48.717
  H        5.196      14.633      46.969
  P        5.491      11.277      44.796
  C        3.865      13.194      44.138
  O        4.995      12.411      43.770
  O        4.530      10.205      45.197
  O        6.683      10.570      43.968
  H        6.333       9.731      43.611
  H        3.654      13.901      43.364
  H        4.073      13.714      45.049
  H        3.018      12.555      44.278

 6  7  8  9  10  11  12  13  14  15  16  26  31  32  33  34  35 0
 6-311+G(2d,p)
 ****
 36  37 0
 6-311+G(2d,p)
 ****
 1  2  3  4  5  17  18  19  20  21  22  23  24  25 0
 3-21G
 ****
 27  28  29  30  38  39  40  41  42  43  44  45 0
 3-21G
 ****


