%nproc=1
%NoSave
%Mem=1900MB
#P OB98/GEN NMR

erre ene a

0 1
  C       27.694    -777.394     -94.054
  O       26.600    -776.505     -94.098
  H       27.660    -777.935     -93.102
  H       28.630    -776.829     -94.104
  H       27.654    -778.117     -94.875
  P       26.148    -775.911     -95.517
  C       23.845    -777.076     -95.417
  O       25.057    -776.913     -96.142
  C       22.678    -776.335     -96.082
  O       22.272    -777.021     -97.291
  C       21.437    -776.271     -95.190
  O       21.422    -775.229     -94.245
  C       20.324    -776.103     -96.216
  O       20.146    -774.711     -96.559
  C       20.850    -776.889     -97.423
  N       16.714    -779.607     -98.759
  C       16.886    -778.237     -98.720
  N       15.787    -777.496     -99.016
  N       18.011    -777.654     -98.397
  C       18.986    -778.508     -98.028
  C       18.939    -779.898     -98.020
  C       17.705    -780.531     -98.426
  O       17.503    -781.744     -98.480
  N       20.134    -780.435     -97.592
  C       20.868    -779.384     -97.278
  N       20.232    -778.195     -97.559
  O       27.426    -776.159     -96.456
  O       25.761    -774.464     -95.517
  H       20.998    -774.364     -96.874
  H       27.440    -775.504     -97.175
  H       15.845    -780.003     -99.049
  H       21.874    -779.433     -96.868
  H       20.663    -776.351     -98.361
  H       19.359    -776.461     -95.836
  H       14.877    -777.892     -99.149
  H       21.295    -777.237     -94.678
  H       15.793    -776.501     -98.745
  H       23.018    -775.336     -96.382
  H       24.025    -776.672     -94.421
  H       23.606    -778.136     -95.301
  P       20.454    -775.309     -92.969
  C       21.995    -776.717     -91.401
  O       20.820    -776.661     -92.191
  O       19.036    -775.616     -93.626
  O       20.414    -774.078     -92.120
  H       18.517    -774.792     -93.740
  H       22.081    -777.687     -90.958
  H       21.942    -775.977     -90.630
  H       22.849    -776.530     -92.018

 6  7  8  9  10  11  12  13  14  15  26  29  33  34 0
 6-311+G(2d,p)
 ****
 36  38  39  40  41 0
 6-311+G(2d,p)
 ****
 1  2  3  4  5  16  17  18  19  20  21  22  23  24  25 0
 3-21G
 ****
 27  28  30  31  32  35  37  42  43  44  45  46  47 0
 3-21G
 ****
 48  49 0
 3-21G
 ****


