%nproc=1
%NoSave
%Mem=1900MB
#P OB98/GEN NMR

erre ene a

0 1
  C      373.623    -232.538    -608.171
  O      374.058    -231.211    -608.361
  H      372.643    -232.665    -608.638
  H      373.530    -232.744    -607.103
  H      374.327    -233.250    -608.626
  P      375.614    -230.899    -608.120
  C      375.987    -229.809    -610.448
  O      376.308    -230.880    -609.567
  C      376.573    -230.066    -611.839
  O      376.130    -231.380    -612.291
  C      376.147    -229.033    -612.903
  O      377.247    -228.805    -613.784
  C      375.064    -229.777    -613.663
  O      374.887    -229.254    -614.985
  C      375.607    -231.196    -613.622
  N      374.349    -234.782    -616.914
  C      375.543    -234.101    -616.727
  N      376.543    -234.369    -617.599
  N      375.735    -233.223    -615.781
  C      374.659    -233.061    -614.978
  C      373.428    -233.662    -615.046
  C      373.218    -234.620    -616.115
  O      372.184    -235.236    -616.340
  N      372.586    -233.181    -614.076
  C      373.305    -232.272    -613.427
  N      374.570    -232.165    -613.936
  O      376.143    -232.268    -607.469
  O      375.908    -229.719    -607.254
  H      374.065    -229.630    -615.355
  H      376.134    -232.189    -606.495
  H      374.247    -235.427    -617.671
  H      372.957    -231.659    -612.608
  H      376.426    -231.360    -614.338
  H      374.106    -229.693    -613.130
  H      376.481    -235.056    -618.339
  H      375.807    -228.078    -612.480
  H      377.435    -233.913    -617.453
  H      377.666    -230.106    -611.756
  H      376.410    -228.879    -610.047
  H      374.899    -229.703    -610.507
  P      378.286    -227.638    -613.414
  C      380.357    -229.158    -612.984
  O      379.405    -228.244    -612.448
  O      377.432    -226.699    -612.445
  O      378.797    -226.886    -614.600
  H      377.696    -225.763    -612.574
  H      381.030    -229.466    -612.211
  H      380.908    -228.681    -613.767
  H      379.848    -230.014    -613.376

 6  7  8  9  10  11  12  13  14  15  26  29  33  34 0
 6-311+G(2d,p)
 ****
 36  38  39  40  41 0
 6-311+G(2d,p)
 ****
 1  2  3  4  5  16  17  18  19  20  21  22  23  24  25 0
 3-21G
 ****
 27  28  30  31  32  35  37  42  43  44  45  46  47 0
 3-21G
 ****
 48  49 0
 3-21G
 ****


