%nproc=1
%NoSave
%Mem=1900MB
#P OB98/GEN NMR

erre ene a

0 1
  C      -84.471     324.086    -314.639
  O      -85.821     324.500    -314.543
  H      -83.853     324.771    -314.055
  H      -84.143     324.116    -315.682
  H      -84.358     323.075    -314.239
  P      -86.901     323.603    -315.320
  C      -87.630     322.222    -313.253
  O      -86.939     322.227    -314.495
  C      -87.489     320.865    -312.566
  O      -88.019     319.816    -313.398
  C      -86.047     320.464    -312.269
  O      -85.582     321.094    -311.087
  C      -86.203     318.962    -312.083
  O      -86.711     318.685    -310.762
  C      -87.265     318.600    -313.139
  N      -84.728     314.778    -315.439
  C      -84.944     315.053    -314.136
  N      -85.591     316.112    -313.596
  C      -86.041     316.937    -314.555
  C      -85.894     316.785    -315.928
  C      -85.213     315.637    -316.367
  N      -85.000     315.355    -317.702
  N      -86.487     317.830    -316.601
  C      -87.024     318.578    -315.654
  N      -86.753     318.096    -314.399
  O      -86.707     323.489    -316.791
  O      -88.269     324.308    -314.865
  H      -87.603     319.069    -310.704
  H      -88.219     324.578    -313.930
  H      -84.548     314.331    -313.428
  H      -87.632     319.455    -315.826
  H      -87.969     317.852    -312.764
  H      -85.252     318.433    -312.175
  H      -85.393     320.654    -313.122
  H      -88.088     320.888    -311.648
  H      -88.692     322.448    -313.410
  H      -84.359     314.610    -317.920
  H      -85.254     316.057    -318.380
  H      -87.202     323.007    -312.632
  P      -84.075     320.875    -310.582
  C      -83.163     322.694    -312.154
  O      -83.118     321.319    -311.795
  O      -83.783     319.523    -310.031
  O      -83.841     322.025    -309.497
  H      -83.303     321.687    -308.758
  H      -82.490     322.873    -312.967
  H      -82.875     323.291    -311.314
  H      -84.158     322.953    -312.451

 6  7  8  9  10  11  12  13  14  15  25  28  32  33  34  35 0
 6-311+G(2d,p)
 ****
 36  39  40 0
 6-311+G(2d,p)
 ****
 1  2  3  4  5  16  17  18  19  20  21  22  23  24 0
 3-21G
 ****
 26  27  29  30  31  37  38  41  42  43  44  45  46  47 0
 3-21G
 ****
 48 0
 3-21G
 ****


