%nproc=1
%NoSave
%Mem=1900MB
#P OB98/GEN NMR

erre ene a

0 1
  C      729.628     125.154     -95.796
  O      729.218     124.305     -94.740
  H      730.585     125.621     -95.556
  H      729.737     124.555     -96.703
  H      728.871     125.925     -95.974
  P      729.096     124.981     -93.290
  C      727.793     124.374     -91.128
  O      727.874     124.245     -92.541
  C      728.307     123.106     -90.458
  O      727.356     122.027     -90.631
  C      729.625     122.573     -91.015
  O      730.742     123.293     -90.521
  C      729.594     121.146     -90.490
  O      730.019     121.128     -89.114
  C      728.098     120.789     -90.582
  N      728.199     116.097     -92.680
  C      728.625     116.557     -91.479
  N      728.577     117.812     -90.998
  C      728.004     118.650     -91.885
  C      727.525     118.325     -93.138
  C      727.643     116.983     -93.544
  N      727.221     116.528     -94.770
  N      726.993     119.436     -93.754
  C      727.139     120.419     -92.891
  N      727.761     119.993     -91.743
  O      728.511     126.442     -93.605
  O      730.368     125.060     -92.512
  H      730.981     121.306     -89.115
  H      728.899     127.086     -92.978
  H      729.056     115.817     -90.821
  H      726.826     121.440     -93.055
  H      727.761     120.247     -89.689
  H      730.243     120.476     -91.042
  H      729.607     122.554     -92.113
  H      728.396     123.308     -89.380
  H      726.756     124.541     -90.840
  H      727.149     115.532     -94.922
  H      726.795     117.200     -95.411
  H      728.395     125.238     -90.821
  P      732.182     122.951     -91.142
  C      734.322     124.356     -91.571
  O      732.924     124.361     -91.327
  O      731.828     122.526     -92.649
  O      732.951     121.889     -90.426
  H      732.527     121.931     -93.002
  H      734.670     125.363     -91.671
  H      734.525     123.817     -92.473
  H      734.825     123.885     -90.753

 6  7  8  9  10  11  12  13  14  15  25  28  32  33  34  35 0
 6-311+G(2d,p)
 ****
 36  39  40 0
 6-311+G(2d,p)
 ****
 1  2  3  4  5  16  17  18  19  20  21  22  23  24 0
 3-21G
 ****
 26  27  29  30  31  37  38  41  42  43  44  45  46  47  48 0
 3-21G
 ****


