%nproc=1
%NoSave
%Mem=1900MB
#P OB98/GEN NMR

erre ene a

0 1
  C     -898.880    -590.773    -328.979
  O     -898.320    -591.379    -327.824
  H     -899.380    -589.849    -328.687
  H     -899.620    -591.435    -329.428
  H     -898.090    -590.539    -329.700
  P     -897.400    -592.665    -328.056
  C     -894.950    -591.975    -327.408
  O     -895.940    -592.090    -328.412
  C     -894.470    -590.530    -327.259
  O     -895.610    -589.714    -326.861
  C     -893.370    -590.336    -326.221
  O     -892.480    -589.302    -326.682
  C     -894.120    -589.845    -324.991
  O     -893.270    -589.123    -324.108
  C     -895.240    -589.019    -325.632
  N     -896.390    -588.852    -324.743
  C     -896.510    -587.600    -324.120
  O     -895.690    -586.713    -324.329
  N     -897.570    -587.401    -323.246
  C     -898.360    -588.379    -322.967
  N     -899.360    -588.130    -322.084
  C     -898.230    -589.730    -323.569
  C     -897.260    -589.886    -324.442
  O     -897.940    -593.212    -329.470
  O     -897.440    -593.674    -326.962
  H     -893.810    -588.587    -323.501
  H     -898.090    -592.504    -330.128
  H     -898.930    -590.515    -323.295
  H     -897.080    -590.840    -324.936
  H     -894.880    -588.026    -325.929
  H     -894.530    -590.698    -324.440
  H     -892.800    -591.243    -326.036
  H     -894.170    -590.150    -328.240
  H     -899.400    -587.178    -321.682
  H     -894.080    -592.615    -327.653
  H     -900.000    -588.825    -321.750
  H     -895.370    -592.339    -326.463
  P     -891.660    -589.529    -328.030
  C     -892.590    -587.800    -329.738
  O     -892.590    -589.156    -329.298
  O     -890.910    -590.809    -328.144
  O     -890.630    -588.290    -328.010
  H     -889.770    -588.626    -328.330
  H     -893.244    -587.698    -330.578
  H     -891.598    -587.517    -330.022
  H     -892.928    -587.167    -328.944

 6  7  8  9  10  11  12  13  14  15  16  26  30  31  32  33  35 0
 6-311+G(2d,p)
 ****
 37  38 0
 6-311+G(2d,p)
 ****
 1  2  3  4  5  17  18  19  20  21  22  23  24  25 0
 3-21G
 ****
 27  28  29  34  36  39  40  41  42  43  44  45  46 0
 3-21G
 ****


