%nproc=1
%NoSave
%Mem=1900MB
#P OB98/GEN NMR

erre ene a

0 1
  C      173.103    -449.614    -209.550
  O      173.159    -450.715    -210.444
  H      173.488    -449.940    -208.578
  H      172.071    -449.290    -209.417
  H      173.714    -448.787    -209.916
  P      172.740    -450.483    -211.972
  C      175.046    -449.526    -212.599
  O      173.650    -449.274    -212.526
  C      175.652    -448.801    -213.797
  O      175.514    -447.370    -213.601
  C      177.148    -449.097    -214.004
  O      177.408    -449.172    -215.405
  C      177.837    -447.879    -213.415
  O      179.119    -447.647    -214.000
  C      176.818    -446.773    -213.712
  N      179.043    -442.286    -213.014
  C      179.054    -443.133    -214.114
  N      179.786    -442.731    -215.175
  N      178.404    -444.264    -214.159
  C      177.706    -444.526    -213.032
  C      177.612    -443.777    -211.883
  C      178.346    -442.540    -211.835
  O      178.376    -441.758    -210.887
  N      176.819    -444.406    -210.942
  C      176.437    -445.524    -211.525
  N      176.952    -445.650    -212.788
  O      171.275    -450.321    -212.223
  O      173.331    -451.768    -212.732
  H      179.442    -446.778    -213.654
  H      172.636    -452.425    -212.891
  H      179.564    -441.434    -213.030
  H      175.799    -446.277    -211.089
  H      176.938    -446.370    -214.723
  H      177.974    -448.011    -212.334
  H      180.293    -441.861    -215.215
  H      177.469    -450.025    -213.519
  H      179.793    -443.321    -216.003
  H      175.082    -449.058    -214.691
  H      175.198    -450.609    -212.701
  H      175.524    -449.188    -211.671
  P      178.576    -450.134    -215.926
  C      177.231    -451.335    -217.760
  O      177.908    -451.469    -216.513
  O      179.707    -450.352    -214.972
  O      179.090    -449.386    -217.249
  H      180.042    -449.581    -217.377
  H      176.828    -452.283    -218.051
  H      177.920    -450.996    -218.505
  H      176.436    -450.625    -217.660

 6  7  8  9  10  11  12  13  14  15  26  29  33  34 0
 6-311+G(2d,p)
 ****
 36  38  39  40  41 0
 6-311+G(2d,p)
 ****
 1  2  3  4  5  16  17  18  19  20  21  22  23  24  25 0
 3-21G
 ****
 27  28  30  31  32  35  37  42  43  44  45  46  47 0
 3-21G
 ****
 48  49 0
 3-21G
 ****


