%nproc=1
%NoSave
%Mem=1900MB
#P OB98/GEN NMR

erre ene a

0 1
  C       82.368      68.322     -47.058
  O       81.958      68.786     -48.336
  P       82.974      68.591     -49.561
  C       85.326      69.490     -50.158
  O       84.335      69.337     -49.149
  C       86.620      70.040     -49.569
  O       86.902      69.347     -48.323
  C       87.849      69.873     -50.478
  O       88.620      71.082     -50.458
  C       88.664      68.797     -49.778
  O       90.049      68.886     -50.093
  C       88.321      69.093     -48.318
  N       91.561      67.655     -44.720
  C       91.360      68.903     -45.280
  N       92.179      69.892     -44.857
  N       90.443      69.159     -46.173
  C       89.676      68.082     -46.478
  C       89.771      66.801     -45.987
  C       90.832      66.518     -45.042
  O       91.119      65.418     -44.579
  N       88.806      65.987     -46.523
  C       88.129      66.772     -47.340
  N       88.650      68.043     -47.384
  O       82.350      69.536     -50.693
  O       83.125      67.191     -50.048
  H       90.134      68.735     -51.053
  H       82.183      69.014     -51.503
  H       92.295      67.511     -44.049
  H       87.284      66.460     -47.939
  H       88.831      70.009     -47.984
  H       88.298      67.811     -50.087
  H       92.882      69.771     -44.145
  H       87.610      69.605     -51.511
  H       92.033      70.817     -45.239
  H       86.467      71.098     -49.318
  H       84.957      70.182     -50.922
  H       85.510      68.515     -50.623
  P       89.159      71.597     -51.881
  C       91.056      70.783     -53.473
  O       90.484      70.749     -52.178
  O       89.709      73.066     -51.560
  O       88.124      71.595     -52.957
  H       89.702      73.615     -52.366
  H       90.593      71.545     -54.107
  H       90.929      69.806     -53.943
  H       92.124      71.001     -53.382
  H       81.596      68.517     -46.343
  H       83.263      68.830     -46.764
  H       82.554      67.269     -47.104

 3  4  5  6  7  8  9  10  11  12  23  26  30  31  33  0
 6-311+G(2d,p)
 ****
 35  36  37  38 0
 6-311+G(2d,p)
 ****
 1  2  13  14  15  16  17  18  19  20  21  22  24  25  27  28  29 0
 3-21G
 ****
 32  34  39  40  41  42  43  44  45  46  47  48  49 0
 3-21G
 ****


