%nproc=1
%NoSave
%Mem=1900MB
#P OB98/GEN NMR

erre ene a

0 1
  C       17.230    -174.554      18.470
  O       16.131    -173.717      18.166
  H       16.867    -175.403      19.054
  H       17.960    -174.007      19.069
  H       17.697    -174.930      17.557
  P       16.357    -172.463      17.194
  C       16.948    -170.770      19.051
  O       17.411    -171.486      17.914
  C       17.902    -169.619      19.391
  O       19.131    -170.177      19.925
  C       18.266    -168.746      18.188
  O       18.367    -167.387      18.607
  C       19.634    -169.262      17.780
  O       20.406    -168.271      17.101
  C       20.226    -169.683      19.123
  N       25.146    -170.695      19.674
  C       24.423    -169.568      20.017
  N       25.116    -168.550      20.573
  N       23.133    -169.448      19.829
  C       22.567    -170.554      19.283
  C       23.173    -171.727      18.899
  C       24.604    -171.835      19.094
  O       25.301    -172.805      18.794
  N       22.263    -172.606      18.367
  C       21.111    -171.962      18.427
  N       21.244    -170.708      18.965
  O       15.102    -171.790      16.730
  O       17.192    -173.057      15.969
  H       20.624    -167.578      17.761
  H       16.630    -173.162      15.180
  H       26.138    -170.730      19.831
  H       20.159    -172.353      18.096
  H       20.694    -168.849      19.654
  H       19.520    -170.125      17.111
  H       26.105    -168.585      20.769
  H       17.536    -168.827      17.381
  H       24.605    -167.726      20.862
  H       17.452    -169.019      20.190
  H       16.896    -171.465      19.896
  H       15.944    -170.380      18.851
  P       17.077    -166.439      18.504
  C       17.963    -165.413      16.321
  O       16.856    -166.031      16.966
  O       17.035    -165.304      19.471
  O       15.866    -167.460      18.771
  H       15.156    -166.994      19.256
  H       17.704    -165.186      15.308
  H       18.801    -166.078      16.335
  H       18.216    -164.509      16.835

 6  7  8  9  10  11  12  13  14  15  26  29  33  34 0
 6-311+G(2d,p)
 ****
 36  38  39  40  41 0
 6-311+G(2d,p)
 ****
 1  2  3  4  5  16  17  18  19  20  21  22  23  24  25 0
 3-21G
 ****
 27  28  30  31  32  35  37  42  43  44  45  46  47 0
 3-21G
 ****
 48  49 0
 3-21G
 ****


