%nproc=1
%NoSave
%Mem=1900MB
#P OB98/GEN NMR

erre ene a

0 1
  C       89.367     150.628     -93.726
  O       89.984     149.708     -92.837
  P       89.787     149.930     -91.259
  C       92.355     149.721     -90.880
  O       91.058     149.275     -90.523
  C       93.397     148.640     -90.574
  O       93.469     148.430     -89.127
  C       93.097     147.283     -91.221
  O       94.351     146.668     -91.552
  C       92.445     146.517     -90.084
  O       92.459     145.111     -90.274
  C       93.282     147.021     -88.898
  N       92.651     146.758     -87.605
  C       92.460     145.429     -87.248
  O       92.788     144.469     -87.954
  N       91.814     145.222     -86.055
  C       91.273     146.180     -85.256
  O       90.601     145.925     -84.262
  C       91.507     147.578     -85.679
  C       92.172     147.793     -86.816
  O       88.585     148.941     -90.896
  O       89.497     151.339     -90.858
  H       92.013     144.707     -89.511
  H       87.741     149.434     -90.827
  H       91.666     144.260     -85.768
  H       91.108     148.364     -85.058
  H       92.340     148.802     -87.171
  H       94.280     146.555     -88.922
  H       91.393     146.826     -89.991
  H       92.459     147.352     -92.110
  H       94.385     149.005     -90.896
  H       92.595     150.621     -90.307
  H       92.376     149.992     -91.945
  P       94.870     146.782     -93.072
  C       94.631     144.206     -93.515
  O       95.465     145.344     -93.458
  O       96.168     147.700     -92.874
  O       93.861     147.360     -94.011
  H       96.704     147.442     -92.102
  H       93.621     144.474     -93.865
  H       94.562     143.763     -92.521
  H       95.055     143.484     -94.204
  H       89.587     150.351     -94.736
  H       89.741     151.612     -93.537
  H       88.308     150.614     -93.575

 3  4  5  6  7  8  9  10  11  12  13  23  28  29  30  31  32 0
 6-311+G(2d,p)
 ****
 33  34 0
 6-311+G(2d,p)
 ****
 1  2  14  15  16  17  18  19  20  21  22  24  25  26 0
 3-21G
 ****
 27  35  36  37  38  39  40  41  42  43  44  45 0
 3-21G
 ****


