%nproc=1
%NoSave
%Mem=1900MB
#P OB98/GEN NMR

erre ene a

0 1
  C     -487.392    -522.608     157.588
  O     -486.843    -521.578     156.768
  P     -485.582    -520.769     157.352
  C     -483.867    -520.630     155.401
  O     -484.255    -521.271     156.599
  C     -484.040    -521.587     154.204
  O     -485.407    -521.955     154.017
  C     -483.598    -520.972     152.883
  O     -482.180    -520.989     152.773
  C     -484.302    -521.876     151.870
  O     -483.484    -523.011     151.503
  C     -485.562    -522.335     152.644
  N     -486.795    -521.816     152.076
  C     -487.283    -522.467     150.938
  O     -486.650    -523.418     150.466
  N     -488.436    -522.013     150.365
  C     -489.050    -520.986     150.861
  N     -490.186    -520.573     150.241
  C     -488.557    -520.244     152.039
  C     -487.427    -520.705     152.602
  O     -485.408    -521.369     158.835
  O     -485.764    -519.285     157.377
  H     -483.486    -523.593     152.298
  H     -485.066    -520.683     159.439
  H     -489.082    -519.384     152.416
  H     -486.993    -520.211     153.470
  H     -485.632    -523.437     152.631
  H     -484.541    -521.334     150.945
  H     -483.977    -519.953     152.797
  H     -483.448    -522.497     154.410
  H     -490.500    -521.098     149.429
  H     -482.826    -520.287     155.461
  H     -490.726    -519.779     150.546
  H     -484.480    -519.734     155.272
  P     -481.392    -519.660     153.179
  C     -479.336    -520.645     154.359
  O     -480.600    -520.028     154.519
  O     -482.574    -518.717     153.747
  O     -480.611    -518.969     152.103
  H     -482.233    -517.832     153.934
  H     -478.819    -520.650     155.315
  H     -478.722    -520.080     153.644
  H     -479.456    -521.671     154.005
  H     -488.219    -523.062     157.084
  H     -487.726    -522.187     158.513
  H     -486.643    -523.347     157.782

 3  4  5  6  7  8  9  10  11  12  13  21  23  27  28  29  30  32 0
 6-311+G(2d,p)
 ****
 34  35 0
 6-311+G(2d,p)
 ****
 1  2  14  15  16  17  18  19  20  22  24  25  26 0
 3-21G
 ****
 31  33  36  37  38  39  40  41  42  43  44  45  46 0
 3-21G
 ****


