%nproc=1
%NoSave
%Mem=1900MB
#P OB98/GEN NMR

erre ene a

0 1
  C      -84.013    -511.178     407.725
  O      -83.756    -509.828     407.321
  P      -82.608    -509.030     408.111
  C      -81.209    -508.528     405.981
  O      -81.254    -509.135     407.265
  C      -80.016    -509.063     405.187
  O      -80.114    -510.480     404.942
  C      -79.879    -508.435     403.804
  O      -79.367    -507.113     403.895
  C      -78.948    -509.425     403.122
  O      -77.582    -509.187     403.526
  C      -79.431    -510.764     403.701
  N      -79.792    -514.548     400.276
  C      -78.736    -514.083     400.995
  N      -78.726    -513.063     401.870
  C      -79.953    -512.530     402.004
  C      -81.107    -512.899     401.340
  C      -81.005    -513.967     400.441
  N      -82.060    -514.440     399.691
  N      -82.179    -512.108     401.738
  C      -81.672    -511.264     402.601
  N      -80.339    -511.476     402.802
  O      -82.339    -509.958     409.384
  O      -83.003    -507.639     408.514
  H      -77.060    -509.963     403.227
  H      -82.685    -509.537     410.188
  H      -77.797    -514.587     400.831
  H      -82.220    -510.464     403.087
  H      -78.597    -511.444     403.932
  H      -78.984    -509.356     402.038
  H      -80.849    -508.421     403.293
  H      -79.105    -508.866     405.772
  H      -81.136    -507.443     406.082
  H      -81.870    -515.153     398.996
  H      -82.938    -513.952     399.732
  H      -82.153    -508.741     405.453
  P      -80.419    -505.892     403.917
  C      -79.566    -505.205     406.251
  O      -80.687    -505.643     405.493
  O      -81.768    -506.619     403.454
  O      -80.014    -504.693     403.127
  H      -81.899    -507.475     403.908
  H      -79.890    -505.044     407.276
  H      -79.184    -504.266     405.859
  H      -78.777    -505.973     406.235
  H      -84.795    -511.588     407.121
  H      -84.311    -511.192     408.752
  H      -83.125    -511.762     407.603

 3  4  5  6  7  8  9  10  11  12  22  25  29  30  31  32 0
 6-311+G(2d,p)
 ****
 33  36  37 0
 6-311+G(2d,p)
 ****
 1  2  13  14  15  16  17  18  19  20  21  23  24  26 0
 3-21G
 ****
 27  28  34  35  38  39  40  41  42  43  44  45  46  47  48 0
 3-21G
 ****


