%nproc=1
%NoSave
%Mem=1900MB
#P OB98/GEN NMR

erre ene a

0 1
  C      103.265    -195.639     -41.488
  O      102.420    -194.517     -41.665
  P      101.013    -194.726     -42.406
  C      100.151    -195.837     -40.186
  O      100.239    -195.876     -41.599
  C       98.687    -195.904     -39.744
  O       98.108    -197.155     -40.212
  C       98.479    -195.845     -38.223
  O       97.262    -195.125     -37.991
  C       98.315    -197.308     -37.849
  O       97.639    -197.483     -36.614
  C       97.549    -197.829     -39.068
  N       97.640    -199.281     -39.235
  C       96.996    -200.085     -38.301
  O       96.371    -199.649     -37.336
  N       97.114    -201.438     -38.498
  C       97.850    -202.048     -39.471
  O       97.935    -203.264     -39.589
  C       98.549    -201.148     -40.399
  C       98.407    -199.831     -40.246
  O      101.479    -195.441     -43.756
  O      100.240    -193.465     -42.593
  H      102.232    -196.043     -43.628
  H       97.776    -198.403     -36.322
  H       96.621    -202.038     -37.854
  H       99.156    -201.595     -41.175
  H       98.914    -199.147     -40.917
  H       96.496    -197.534     -39.006
  H       99.303    -197.774     -37.766
  H       99.308    -195.353     -37.707
  H       98.140    -195.091     -40.236
  H      100.592    -194.906     -39.820
  H      100.725    -196.669     -39.766
  P       97.082    -194.379     -36.575
  C       97.602    -192.115     -37.780
  O       97.828    -192.967     -36.681
  O       98.084    -195.246     -35.669
  O       95.686    -194.367     -36.044
  H       98.953    -195.371     -36.082
  H       97.915    -191.104     -37.512
  H       96.544    -192.090     -38.057
  H       98.195    -192.453     -38.635
  H      104.158    -195.337     -40.981
  H      103.518    -196.049     -42.443
  H      102.758    -196.379     -40.905

 3  4  5  6  7  8  9  10  11  12  13  24  28  29  30  31  32 0
 6-311+G(2d,p)
 ****
 33  34 0
 6-311+G(2d,p)
 ****
 1  2  14  15  16  17  18  19  20  21  22  23  25  26  27 0
 3-21G
 ****
 35  36  37  38  39  40  41  42  43  44  45 0
 3-21G
 ****


