%nproc=1
%NoSave
%Mem=1900MB
#P OB98/GEN NMR

erre ene a

0 1
  C      419.319    -142.370     244.590
  O      419.002    -141.755     245.848
  P      420.199    -141.305     246.823
  C      418.511    -140.511     248.656
  O      419.655    -141.283     248.330
  C      417.481    -141.370     249.397
  O      417.091    -142.504     248.588
  C      417.987    -141.971     250.702
  O      418.018    -141.014     251.747
  C      416.981    -143.086     250.934
  O      415.783    -142.582     251.548
  C      416.694    -143.557     249.490
  N      417.358    -144.818     249.168
  C      416.647    -145.982     249.448
  O      415.544    -145.986     249.991
  N      417.269    -147.153     249.106
  C      418.530    -147.274     248.595
  O      419.039    -148.357     248.326
  C      419.261    -146.016     248.393
  C      418.654    -144.865     248.696
  O      420.322    -139.741     246.494
  O      421.505    -141.997     246.605
  H      416.038    -142.268     252.440
  H      421.239    -139.444     246.656
  H      416.761    -148.008     249.271
  H      420.271    -146.067     248.014
  H      419.180    -143.924     248.554
  H      415.615    -143.687     249.342
  H      417.366    -143.872     251.586
  H      418.980    -142.408     250.551
  H      416.584    -140.755     249.575
  H      418.059    -140.129     247.737
  H      418.818    -139.661     249.275
  P      419.457    -140.689     252.389
  C      418.317    -138.547     253.371
  O      419.165    -139.660     253.582
  O      420.114    -139.806     251.228
  O      420.230    -141.918     252.749
  H      419.454    -139.264     250.758
  H      417.521    -138.779     252.661
  H      418.917    -137.708     252.998
  H      417.867    -138.264     254.329
  H      418.414    -142.605     244.070
  H      419.875    -143.268     244.762
  H      419.904    -141.695     244.001

 3  4  5  6  7  8  9  10  11  12  13  23  28  29  30  31  32 0
 6-311+G(2d,p)
 ****
 33  34 0
 6-311+G(2d,p)
 ****
 1  2  14  15  16  17  18  19  20  21  22  24  25  26 0
 3-21G
 ****
 27  35  36  37  38  39  40  41  42  43  44  45 0
 3-21G
 ****


