%nproc=1
%NoSave
%Mem=1900MB
#P OB98/GEN NMR

erre ene a

0 1
  C       11.220     161.087     -71.925
  O       11.590     161.036     -73.287
  H       11.741     161.925     -71.454
  H       11.514     160.165     -71.418
  H       10.143     161.241     -71.819
  P       10.841     159.998     -74.251
  C       12.226     158.012     -75.133
  O       11.529     158.569     -74.025
  C       13.607     158.654     -75.253
  O       14.287     158.605     -73.979
  C       14.532     157.943     -76.234
  O       14.188     158.230     -77.574
  C       15.883     158.474     -75.785
  O       16.140     159.770     -76.342
  C       15.704     158.564     -74.253
  N       16.343     157.443     -73.561
  C       17.667     157.188     -73.900
  O       18.299     157.849     -74.720
  N       18.233     156.092     -73.302
  C       17.573     155.177     -72.532
  O       18.048     154.089     -72.224
  C       16.197     155.533     -72.159
  C       15.648     156.626     -72.692
  O       10.709     160.421     -75.677
  O        9.405     159.815     -73.562
  H        8.745     160.342     -74.051
  H       17.007     160.048     -75.983
  H       19.182     155.874     -73.575
  H       15.662     154.869     -71.489
  H       14.621     156.893     -72.458
  H       16.131     159.499     -73.871
  H       16.696     157.812     -76.092
  H       14.499     156.862     -76.057
  H       13.476     159.706     -75.532
  H       11.653     158.210     -76.044
  H       12.312     156.929     -74.993
  P       14.800     157.357     -78.770
  C       16.549     158.756     -80.031
  O       16.322     157.808     -78.993
  O       13.972     157.309     -80.012
  O       14.957     155.892     -78.139
  H       14.551     155.243     -78.746
  H       17.594     158.980     -80.087
  H       16.003     159.652     -79.822
  H       16.221     158.348     -80.964

 6  7  8  9  10  11  12  13  14  15  16  27  31  32  33  34  35 0
 6-311+G(2d,p)
 ****
 36  37 0
 6-311+G(2d,p)
 ****
 1  2  3  4  5  17  18  19  20  21  22  23  24  25 0
 3-21G
 ****
 26  28  29  30  38  39  40  41  42  43  44  45 0
 3-21G
 ****


