%nproc=1
%NoSave
%Mem=1900MB
#P OB98/GEN NMR

erre ene a

0 1
  C     -397.245     163.541      13.768
  O     -398.452     164.106      14.241
  H     -397.181     162.509      14.115
  H     -396.392     164.101      14.151
  H     -397.230     163.547      12.674
  P     -398.749     165.629      13.814
  C     -400.732     165.002      12.243
  O     -400.302     165.690      13.422
  C     -402.255     164.916      12.232
  O     -402.704     163.969      13.232
  C     -402.957     166.237      12.574
  O     -402.973     167.133      11.470
  C     -404.329     165.726      12.981
  O     -405.175     165.503      11.843
  C     -404.017     164.400      13.674
  N     -407.058     164.954      17.736
  C     -407.327     164.791      16.420
  N     -406.464     164.634      15.403
  C     -405.189     164.641      15.858
  C     -404.766     164.787      17.170
  C     -405.770     164.959      18.135
  N     -405.492     165.145      19.476
  N     -403.379     164.775      17.232
  C     -402.980     164.613      15.985
  N     -404.040     164.508      15.124
  O     -397.992     165.763      12.412
  O     -398.297     166.660      14.795
  H     -405.290     166.384      11.424
  H     -397.134     166.211      12.547
  H     -408.391     164.782      16.153
  H     -401.948     164.562      15.658
  H     -404.723     163.609      13.392
  H     -404.832     166.449      13.628
  H     -402.473     166.694      13.442
  H     -402.582     164.537      11.244
  H     -400.312     163.984      12.236
  H     -400.371     165.547      11.364
  H     -406.251     165.332      20.097
  H     -404.526     165.263      19.764
  P     -402.914     168.692      11.807
  C     -400.373     168.897      11.217
  O     -401.706     169.316      10.951
  O     -402.371     168.757      13.311
  O     -404.216     169.422      11.652
  H     -402.793     169.500      13.789
  H     -399.701     169.409      10.561
  H     -400.292     167.842      11.058
  H     -400.123     169.125      12.232

 6  7  8  9  10  11  12  13  14  15  25  28  32  33  34  35 0
 6-311+G(2d,p)
 ****
 36  37  40 0
 6-311+G(2d,p)
 ****
 1  2  3  4  5  16  17  18  19  20  21  22  23  24 0
 3-21G
 ****
 26  27  29  30  31  38  39 41  42  43  44  45  46  47  48 0
 3-21G
 ****


