%nproc=1
%NoSave
%Mem=1900MB
#P OB98/GEN NMR

erre ene a

0 1
  C      230.976    -552.029    -121.909
  O      229.885    -552.120    -122.833
  P      228.875    -550.872    -122.906
  C      230.025    -549.450    -124.781
  O      229.764    -549.632    -123.397
  C      229.208    -548.277    -125.318
  O      229.497    -547.068    -124.571
  C      229.497    -547.928    -126.771
  O      228.911    -548.876    -127.654
  C      228.911    -546.527    -126.856
  O      227.486    -546.587    -127.023
  C      229.254    -545.954    -125.465
  N      230.382    -545.033    -125.487
  C      230.061    -543.681    -125.585
  O      228.904    -543.273    -125.673
  N      231.118    -542.817    -125.601
  C      232.438    -543.160    -125.557
  O      233.345    -542.337    -125.563
  C      232.718    -544.603    -125.505
  C      231.696    -545.460    -125.473
  O      228.620    -550.591    -121.353
  O      227.653    -551.161    -123.709
  H      229.403    -550.755    -120.803
  H      227.145    -545.693    -126.812
  H      230.905    -541.830    -125.659
  H      233.753    -544.915    -125.497
  H      231.882    -546.530    -125.438
  H      228.388    -545.420    -125.051
  H      229.316    -545.957    -127.697
  H      230.581    -547.891    -126.939
  H      228.146    -548.515    -125.189
  H      229.760    -550.356    -125.333
  H      231.098    -549.282    -124.919
  P      229.583    -549.029    -129.104
  C      231.560    -550.599    -128.419
  O      231.136    -549.325    -128.856
  O      229.554    -547.514    -129.621
  O      228.877    -549.997    -129.995
  H      229.830    -546.877    -128.944
  H      232.624    -550.707    -128.643
  H      231.010    -551.396    -128.927
  H      231.413    -550.682    -127.340
  H      231.565    -552.921    -121.963
  H      230.594    -551.914    -120.916
  H      231.584    -551.185    -122.157

 3  4  5  6  7  8  9  10  11  12  13  24  28  29  30  31  32 0
 6-311+G(2d,p)
 ****
 33  34 0
 6-311+G(2d,p)
 ****
 1  2  14  15  16  17  18  19  20  21  22  23  25  26  27 0
 3-21G
 ****
 35  36  37  38  39  40  41  42  43  44  45 0
 3-21G
 ****


