%nproc=1
%NoSave
%Mem=1900MB
#P OB98/GEN NMR

erre ene a

0 1
  C     -230.402     233.546     -88.701
  O     -230.926     234.783     -88.200
  P     -231.866     234.871     -86.904
  C     -234.091     234.437     -88.134
  O     -233.178     233.983     -87.140
  C     -235.396     233.635     -88.114
  O     -235.245     232.404     -88.845
  C     -235.872     233.226     -86.725
  O     -236.450     234.321     -86.040
  C     -236.844     232.101     -87.071
  O     -238.128     232.625     -87.446
  C     -236.149     231.437     -88.277
  N     -235.458     230.206     -87.916
  C     -236.242     229.053     -87.830
  O     -237.461     229.112     -87.998
  N     -235.626     227.862     -87.531
  C     -234.357     227.840     -87.267
  N     -233.801     226.631     -86.986
  C     -233.512     229.049     -87.256
  C     -234.123     230.184     -87.589
  O     -232.149     236.268     -86.452
  O     -231.074     234.069     -85.763
  H     -238.398     233.232     -86.730
  H     -231.286     234.460     -84.895
  H     -232.465     228.992     -87.004
  H     -233.574     231.118     -87.616
  H     -236.881     231.211     -89.061
  H     -237.008     231.417     -86.233
  H     -235.032     232.816     -86.152
  H     -236.165     234.234     -88.620
  H     -234.406     225.821     -87.006
  H     -233.613     234.326     -89.115
  H     -232.824     226.503     -86.768
  H     -234.297     235.500     -87.965
  P     -235.596     235.111     -84.939
  C     -236.212     233.714     -82.876
  O     -235.194     234.064     -83.796
  O     -236.194     236.389     -84.452
  O     -234.194     235.381     -85.673
  H     -233.822     236.218     -85.341
  H     -235.964     232.747     -82.430
  H     -237.183     233.639     -83.372
  H     -236.261     234.469     -82.086
  H     -229.806     233.737     -89.569
  H     -231.211     232.895     -88.960
  H     -229.798     233.083     -87.948

 3  4  5  6  7  8  9  10  11  12  13  23  27  28  29  30  32 0
 6-311+G(2d,p)
 ****
 34  35 0
 6-311+G(2d,p)
 ****
 1  2  14  15  16  17  18  19  20  21  22  24  25  26 0
 3-21G
 ****
 31  33  36  37  38  39  40  41  42  43  44  45  46 0
 3-21G
 ****


