%nproc=1
%NoSave
%Mem=1900MB
#P OB98/GEN NMR

erre ene a

0 1
  C     -892.317    -643.328    -637.593
  O     -892.959    -644.557    -637.870
  H     -891.475    -643.491    -636.912
  H     -891.937    -642.909    -638.528
  H     -893.025    -642.624    -637.148
  P     -893.557    -645.359    -636.613
  C     -896.042    -644.601    -636.760
  O     -894.790    -644.472    -636.098
  C     -897.152    -644.135    -635.817
  O     -897.106    -644.882    -634.583
  C     -897.052    -642.665    -635.430
  O     -897.593    -641.796    -636.408
  C     -897.887    -642.662    -634.163
  O     -899.288    -642.680    -634.493
  C     -897.471    -643.981    -633.506
  N     -894.796    -646.268    -629.778
  C     -895.840    -646.690    -630.534
  N     -896.472    -646.036    -631.527
  C     -895.943    -644.818    -631.710
  C     -894.890    -644.245    -631.016
  C     -894.307    -645.027    -630.003
  N     -893.270    -644.580    -629.208
  N     -894.633    -642.967    -631.471
  C     -895.522    -642.774    -632.435
  N     -896.352    -643.850    -632.586
  O     -892.461    -645.152    -635.469
  O     -893.891    -646.795    -636.855
  H     -899.434    -643.462    -635.059
  H     -892.608    -645.777    -634.741
  H     -896.188    -647.692    -630.321
  H     -895.605    -641.885    -633.034
  H     -898.301    -644.451    -632.946
  H     -897.723    -641.762    -633.547
  H     -896.018    -642.389    -635.171
  H     -898.122    -644.345    -636.299
  H     -896.201    -645.652    -637.024
  H     -893.020    -645.155    -628.415
  H     -892.989    -643.613    -629.257
  H     -896.038    -643.994    -637.667
  P     -896.599    -640.698    -637.042
  C     -896.636    -641.932    -639.334
  O     -895.841    -641.419    -638.262
  O     -895.465    -640.559    -635.930
  O     -897.253    -639.383    -637.357
  H     -895.105    -639.647    -635.910
  H     -895.999    -642.380    -640.068
  H     -897.189    -641.133    -639.782
  H     -897.315    -642.667    -638.954

 6  7  8  9  10  11  12  13  14  15  25  28  32  33  34  35 0
 6-311+G(2d,p)
 ****
 36  39  40 0
 6-311+G(2d,p)
 ****
 1  2  3  4  5  16  17  18  19  20  21  22  23  24 0
 3-21G
 ****
 26  27  29  30  31  37  38  41  42  43  44  45  46  47 0
 3-21G
 ****
 48 0
 3-21G
 ****


