%nproc=1
%NoSave
%Mem=1900MB
#P OB98/GEN NMR

erre ene a

0 1
  C      415.939    -155.688    -475.916
  O      417.061    -155.178    -475.192
  P      418.268    -156.181    -474.854
  C      419.849    -154.845    -476.434
  O      419.329    -156.115    -476.046
  C      420.381    -154.903    -477.868
  O      419.332    -154.858    -478.847
  C      421.306    -153.740    -478.224
  O      422.631    -153.964    -477.749
  C      421.273    -153.791    -479.740
  O      422.154    -154.829    -480.215
  C      419.815    -154.168    -480.016
  N      417.928    -151.099    -483.662
  C      418.807    -152.122    -483.713
  N      419.276    -152.883    -482.703
  C      418.736    -152.497    -481.530
  C      417.827    -151.467    -481.319
  C      417.425    -150.748    -482.450
  N      416.531    -149.686    -482.395
  N      417.505    -151.362    -479.983
  C      418.188    -152.324    -479.399
  N      418.952    -153.036    -480.296
  O      417.595    -157.617    -475.040
  O      418.827    -156.011    -473.478
  H      423.060    -154.553    -480.003
  H      417.981    -158.251    -474.398
  H      419.174    -152.368    -484.703
  H      418.154    -152.553    -478.337
  H      419.719    -154.860    -480.864
  H      421.600    -152.853    -480.203
  H      420.897    -152.788    -477.861
  H      420.929    -155.852    -477.993
  H      420.636    -154.536    -475.746
  H      416.271    -149.254    -483.249
  H      416.123    -149.448    -481.496
  H      419.052    -154.103    -476.346
  P      422.996    -153.389    -476.296
  C      423.071    -155.821    -475.357
  O      422.521    -154.519    -475.261
  O      421.950    -152.203    -476.097
  O      424.410    -152.926    -476.167
  H      422.325    -151.512    -475.525
  H      422.888    -156.353    -474.421
  H      424.151    -155.781    -475.529
  H      422.585    -156.364    -476.180
  H      415.224    -154.906    -476.063
  H      415.488    -156.484    -475.361
  H      416.265    -156.056    -476.866

 3  4  5  6  7  8  9  10  11  12  22  25  29  30  31  32 0
 6-311+G(2d,p)
 ****
 33  36  37 0
 6-311+G(2d,p)
 ****
 1  2  13  14  15  16  17  18  19  20  21  23  24  26 0
 3-21G
 ****
 27  28  34  35  38  39  40  41  42  43  44  45  46  47  48 0
 3-21G
 ****


