%nproc=1
%NoSave
%Mem=1900MB
#P OB98/GEN NMR

erre ene a

0 1
  C     -256.910     179.888     -12.643
  O     -257.355     179.054     -11.595
  H     -256.527     179.263     -13.453
  H     -256.102     180.533     -12.290
  H     -257.733     180.498     -13.027
  P     -258.105     179.753     -10.361
  C     -260.319     180.428     -11.542
  O     -259.086     180.862     -10.989
  C     -261.290     180.023     -10.430
  O     -261.725     181.221      -9.735
  C     -262.536     179.297     -10.938
  O     -262.877     178.266     -10.007
  C     -263.614     180.366     -10.924
  O     -264.929     179.828     -10.806
  C     -263.166     181.235      -9.739
  N     -263.694     182.594      -9.846
  C     -264.940     182.831      -9.260
  O     -265.547     181.917      -8.699
  N     -265.501     184.078      -9.374
  C     -264.908     184.986     -10.085
  N     -265.528     186.192     -10.187
  C     -263.624     184.760     -10.777
  C     -263.076     183.556     -10.610
  O     -256.955     180.628      -9.676
  O     -258.762     178.820      -9.400
  H     -265.204     179.498     -11.688
  H     -257.091     180.698      -8.713
  H     -263.183     185.539     -11.383
  H     -262.136     183.295     -11.086
  H     -263.505     180.799      -8.790
  H     -263.567     180.946     -11.855
  H     -262.405     178.856     -11.932
  H     -260.747     179.409      -9.702
  H     -266.419     186.304      -9.711
  H     -260.135     179.560     -12.184
  H     -265.182     186.957     -10.749
  H     -260.748     181.231     -12.151
  P     -262.673     176.752     -10.493
  C     -260.348     176.273      -9.438
  O     -261.099     176.479     -10.629
  O     -263.185     176.780     -12.010
  O     -263.422     175.752      -9.676
  H     -264.036     176.309     -12.083
  H     -259.321     176.105      -9.688
  H     -260.732     175.421      -8.917
  H     -260.426     177.138      -8.813

 6  7  8  9  10  11  12  13  14  15  16  26  30  31  32  33  35 0
 6-311+G(2d,p)
 ****
 37  38 0
 6-311+G(2d,p)
 ****
 1  2  3  4  5  17  18  19  20  21  22  23  24  25 0
 3-21G
 ****
 27  28  29  34  36  39  40  41  42  43  44  45  46 0
 3-21G
 ****


