%nproc=1
%NoSave
%Mem=1900MB
#P OB98/GEN NMR

erre ene a

0 1
  C     -985.766    -272.466     367.795
  O     -986.730    -271.969     366.878
  H     -985.241    -271.627     368.247
  H     -985.042    -273.090     367.262
  H     -986.240    -273.052     368.589
  P     -987.839    -272.965     366.292
  C     -989.668    -272.556     368.061
  O     -989.260    -272.362     366.717
  C     -990.838    -271.641     368.422
  O     -990.356    -270.269     368.544
  C     -991.962    -271.630     367.366
  O     -993.196    -271.382     368.061
  C     -991.587    -270.419     366.525
  O     -992.681    -269.971     365.740
  C     -991.094    -269.467     367.616
  N     -990.285    -268.368     367.065
  C     -990.976    -267.258     366.590
  O     -992.214    -267.185     366.589
  N     -990.212    -266.243     366.073
  C     -988.863    -266.260     365.941
  O     -988.237    -265.342     365.444
  C     -988.179    -267.476     366.419
  C     -988.914    -268.462     366.960
  O     -987.640    -274.408     366.623
  O     -987.797    -272.707     364.712
  H     -992.978    -270.685     365.154
  H     -988.045    -273.519     364.235
  H     -990.706    -265.431     365.732
  H     -987.112    -267.522     366.321
  H     -988.436    -269.373     367.317
  H     -991.945    -269.027     368.154
  H     -990.770    -270.674     365.843
  H     -992.026    -272.559     366.791
  H     -991.232    -271.922     369.410
  H     -988.812    -272.338     368.713
  H     -989.953    -273.603     368.213
  P     -994.456    -272.373     367.930
  C     -994.749    -272.759     370.455
  O     -995.340    -272.272     369.266
  O     -994.098    -273.783     367.538
  O     -995.376    -271.704     366.805
  H     -995.911    -272.391     366.353
  H     -995.433    -272.637     371.269
  H     -993.852    -272.212     370.657
  H     -994.515    -273.797     370.338

 6  7  8  9  10  11  12  13  14  15  16  26  31  32  33  34  35 0
 6-311+G(2d,p)
 ****
 36  37 0
 6-311+G(2d,p)
 ****
 1  2  3  4  5  17  18  19  20  21  22  23  24  25 0
 3-21G
 ****
 27  28  29  30  38  39  40  41  42  43  44  45 0
 3-21G
 ****


