%nproc=1
%NoSave
%Mem=1900MB
#P OB98/GEN NMR

erre ene a

0 1
  C     -390.377     384.837     394.587
  O     -390.790     385.350     393.336
  H     -389.312     385.051     394.721
  H     -390.522     383.754     394.620
  H     -390.934     385.315     395.401
  P     -392.339     385.253     392.931
  C     -392.179     383.483     391.070
  O     -392.391     384.858     391.377
  C     -391.890     383.301     389.580
  O     -390.570     383.821     389.292
  C     -391.937     381.837     389.116
  O     -392.520     381.794     387.815
  C     -390.473     381.450     389.042
  O     -390.241     380.396     388.105
  C     -389.819     382.776     388.644
  N     -385.058     382.887     386.937
  C     -386.252     382.929     386.244
  N     -386.184     382.972     384.898
  N     -387.431     382.908     386.828
  C     -387.355     382.871     388.182
  C     -386.240     382.834     388.978
  C     -384.948     382.837     388.322
  O     -383.849     382.789     388.878
  N     -386.572     382.781     390.312
  C     -387.899     382.779     390.315
  N     -388.420     382.827     389.049
  O     -393.169     386.444     393.294
  O     -392.854     383.928     393.666
  H     -390.819     380.571     387.327
  H     -393.331     384.154     394.487
  H     -384.182     382.895     386.442
  H     -388.518     382.741     391.197
  H     -389.845     382.946     387.560
  H     -390.126     381.120     390.033
  H     -385.317     383.003     384.383
  H     -392.502     381.195     389.802
  H     -387.047     383.021     384.373
  H     -392.606     383.912     389.008
  H     -393.081     382.926     391.347
  H     -391.336     383.105     391.662
  P     -393.819     380.886     387.579
  C     -392.919     379.345     385.708
  O     -393.817     380.397     386.050
  O     -395.104     381.453     388.063
  O     -393.451     379.531     388.365
  H     -394.274     379.121     388.693
  H     -393.017     379.117     384.667
  H     -393.151     378.476     386.287
  H     -391.915     379.653     385.913

 6  7  8  9  10  11  12  13  14  15  26  29  33  34 0
 6-311+G(2d,p)
 ****
 36  38  39  40  41 0
 6-311+G(2d,p)
 ****
 1  2  3  4  5  16  17  18  19  20  21  22  23  24  25 0
 3-21G
 ****
 27  28  30  31  32  35  37  42  43  44  45  46  47 0
 3-21G
 ****
 48  49 0
 3-21G
 ****


