%nproc=1
%NoSave
%Mem=1900MB
#P OB98/GEN NMR

erre ene a

0 1
  C     -120.506     557.975    -107.884
  O     -121.873     558.179    -108.212
  P     -122.690     559.267    -107.361
  C     -123.746     559.348    -105.002
  O     -123.092     558.550    -105.976
  C     -124.261     558.492    -103.855
  O     -125.298     557.591    -104.370
  C     -123.192     557.616    -103.177
  O     -123.363     557.673    -101.759
  C     -123.541     556.206    -103.635
  O     -123.077     555.218    -102.720
  C     -125.062     556.319    -103.741
  N     -127.182     551.743    -103.389
  C     -126.866     552.646    -102.397
  N     -127.100     552.246    -101.123
  N     -126.361     553.828    -102.630
  C     -126.212     554.108    -103.946
  C     -126.489     553.296    -105.015
  C     -126.996     551.964    -104.756
  O     -127.205     551.082    -105.583
  N     -126.232     553.934    -106.212
  C     -125.780     555.121    -105.851
  N     -125.707     555.259    -104.489
  O     -124.083     559.363    -108.150
  O     -122.038     560.598    -107.238
  H     -123.414     555.474    -101.841
  H     -124.245     560.293    -108.411
  H     -127.546     550.827    -103.159
  H     -125.467     555.904    -106.542
  H     -125.513     556.341    -102.742
  H     -123.079     556.023    -104.617
  H     -127.509     551.365    -100.875
  H     -122.156     557.898    -103.437
  H     -126.896     552.902    -100.383
  H     -124.756     559.137    -103.120
  H     -124.592     559.873    -105.475
  H     -123.043     560.098    -104.615
  P     -122.102     557.217    -100.880
  C     -121.739     555.199     -99.263
  O     -122.416     555.718    -100.388
  O     -122.244     558.095     -99.544
  O     -120.784     557.422    -101.558
  H     -121.370     558.211     -99.114
  H     -121.171     555.979     -98.728
  H     -121.058     554.422     -99.587
  H     -122.473     554.775     -98.569
  H     -120.092     557.227    -108.528
  H     -120.428     557.652    -106.867
  H     -119.968     558.891    -108.010

 3  4  5  6  7  8  9  10  11  12  23  26  30  31  33  0
 6-311+G(2d,p)
 ****
 35  36  37  38 0
 6-311+G(2d,p)
 ****
 1  2  13  14  15  16  17  18  19  20  21  22  24  25  27  28  29 0
 3-21G
 ****
 32  34  39  40  41  42  43  44  45  46  47  48  49 0
 3-21G
 ****


