%nproc=1
%NoSave
%Mem=1900MB
#P OB98/GEN NMR

erre ene a

0 1
  C      369.039    -271.591     160.521
  O      369.815    -272.511     159.773
  H      369.024    -271.916     161.569
  H      368.010    -271.561     160.156
  H      369.483    -270.593     160.470
  P      369.864    -272.339     158.181
  C      371.731    -274.131     158.184
  O      370.496    -273.702     157.623
  C      371.857    -275.648     158.073
  O      371.536    -276.079     156.736
  C      373.266    -276.152     158.345
  O      373.551    -276.142     159.728
  C      373.212    -277.525     157.698
  O      372.562    -278.475     158.551
  C      372.355    -277.237     156.443
  N      373.160    -277.024     155.248
  C      373.655    -278.175     154.626
  O      373.406    -279.288     155.084
  N      374.451    -278.024     153.509
  C      374.704    -276.841     153.046
  N      375.491    -276.764     151.943
  C      374.189    -275.603     153.665
  C      373.435    -275.765     154.753
  O      370.512    -271.094     157.654
  O      368.327    -272.448     157.744
  H      372.654    -279.342     158.107
  H      367.907    -271.567     157.748
  H      374.426    -274.638     153.243
  H      373.015    -274.907     155.263
  H      371.664    -278.069     156.250
  H      374.206    -277.903     157.473
  H      373.998    -275.550     157.793
  H      371.136    -276.106     158.756
  H      375.831    -277.640     151.558
  H      371.729    -273.830     159.234
  H      375.686    -275.908     151.445
  H      372.576    -273.642     157.684
  P      375.015    -275.767     160.257
  C      374.314    -276.085     162.720
  O      375.167    -276.525     161.665
  O      375.333    -274.305     160.281
  O      375.977    -276.614     159.295
  H      376.030    -276.209     158.394
  H      374.508    -276.662     163.600
  H      373.292    -276.212     162.429
  H      374.502    -275.051     162.923

 6  7  8  9  10  11  12  13  14  15  16  26  30  31  32  33  35 0
 6-311+G(2d,p)
 ****
 37  38 0
 6-311+G(2d,p)
 ****
 1  2  3  4  5  17  18  19  20  21  22  23  24  25 0
 3-21G
 ****
 27  28  29  34  36  39  40  41  42  43  44  45  46 0
 3-21G
 ****


