%nproc=1
%NoSave
%Mem=1900MB
#P OB98/GEN NMR

erre ene a

0 1
  C     -330.832    -353.435    -782.635
  O     -331.430    -352.161    -782.735
  H     -330.829    -353.902    -783.622
  H     -331.391    -354.078    -781.943
  H     -329.799    -353.340    -782.297
  P     -331.701    -351.327    -781.389
  C     -330.219    -349.313    -782.018
  O     -330.396    -350.428    -781.145
  C     -328.969    -348.519    -781.632
  O     -329.255    -347.786    -780.404
  C     -327.729    -349.391    -781.387
  O     -326.586    -348.691    -781.873
  C     -327.688    -349.492    -779.876
  O     -326.387    -349.784    -779.407
  C     -328.247    -348.135    -779.432
  N     -328.791    -348.190    -778.080
  C     -327.899    -347.884    -777.043
  O     -326.721    -347.578    -777.293
  N     -328.331    -348.002    -775.748
  C     -329.534    -348.448    -775.500
  N     -329.876    -348.570    -774.196
  C     -330.493    -348.800    -776.565
  C     -330.062    -348.646    -777.817
  O     -332.150    -352.121    -780.208
  O     -332.812    -350.260    -781.834
  H     -325.781    -349.053    -779.646
  H     -333.703    -350.614    -781.678
  H     -331.480    -349.164    -776.313
  H     -330.697    -348.888    -778.668
  H     -327.463    -347.362    -779.466
  H     -328.364    -350.300    -779.540
  H     -327.802    -350.378    -781.863
  H     -328.779    -347.770    -782.411
  H     -329.171    -348.336    -773.495
  H     -331.106    -348.679    -781.931
  H     -330.765    -348.942    -773.880
  H     -330.129    -349.665    -783.052
  P     -325.670    -349.329    -783.033
  C     -326.753    -347.785    -784.762
  O     -326.402    -349.130    -784.453
  O     -325.206    -350.723    -782.769
  O     -324.420    -348.328    -783.125
  H     -323.628    -348.833    -783.406
  H     -327.231    -347.752    -785.719
  H     -325.869    -347.182    -784.784
  H     -327.422    -347.411    -784.016

 6  7  8  9  10  11  12  13  14  15  16  26  30  31  32  33  35 0
 6-311+G(2d,p)
 ****
 37  38 0
 6-311+G(2d,p)
 ****
 1  2  3  4  5  17  18  19  20  21  22  23  24  25 0
 3-21G
 ****
 27  28  29  34  36  39  40  41  42  43  44  45  46 0
 3-21G
 ****


