%nproc=1
%NoSave
%Mem=1900MB
#P OB98/GEN NMR

erre ene a

0 1
  C       20.815    -264.893    -153.451
  O       19.676    -264.092    -153.705
  H       21.297    -265.127    -154.402
  H       20.512    -265.826    -152.971
  H       21.524    -264.358    -152.815
  P       18.867    -263.558    -152.426
  C       20.578    -262.116    -151.115
  O       19.508    -262.131    -152.048
  C       21.199    -260.721    -151.027
  O       21.717    -260.354    -152.340
  C       20.215    -259.620    -150.597
  O       20.936    -258.667    -149.803
  C       19.851    -258.955    -151.917
  O       19.356    -257.629    -151.745
  C       21.195    -259.043    -152.643
  N       21.804    -255.664    -156.323
  C       22.086    -255.581    -154.972
  N       22.609    -254.416    -154.530
  N       21.871    -256.554    -154.126
  C       21.373    -257.671    -154.710
  C       21.047    -257.878    -156.032
  C       21.264    -256.781    -156.952
  O       21.016    -256.788    -158.156
  N       20.540    -259.141    -156.222
  C       20.564    -259.692    -155.021
  N       21.059    -258.842    -154.071
  O       19.379    -264.526    -151.258
  O       17.380    -263.574    -152.558
  H       19.995    -257.141    -151.188
  H       18.772    -265.284    -151.158
  H       21.976    -254.878    -156.926
  H       20.230    -260.697    -154.785
  H       21.913    -258.295    -152.282
  H       19.085    -259.542    -152.438
  H       22.847    -253.643    -155.130
  H       19.343    -259.981    -150.042
  H       22.865    -254.353    -153.550
  H       22.058    -260.763    -150.351
  H       21.345    -262.830    -151.441
  H       20.203    -262.418    -150.132
  P       20.632    -258.615    -148.231
  C       22.131    -259.294    -146.214
  O       21.628    -259.639    -147.496
  O       19.214    -259.357    -148.117
  O       20.582    -257.235    -147.660
  H       18.730    -259.024    -147.340
  H       22.775    -260.073    -145.862
  H       21.316    -259.170    -145.532
  H       22.682    -258.379    -146.281

 6  7  8  9  10  11  12  13  14  15  26  29  33  34 0
 6-311+G(2d,p)
 ****
 36  38  39  40  41 0
 6-311+G(2d,p)
 ****
 1  2  3  4  5  16  17  18  19  20  21  22  23  24  25 0
 3-21G
 ****
 27  28  30  31  32  35  37  42  43  44  45  46  47 0
 3-21G
 ****
 48  49 0
 3-21G
 ****


