%nproc=1
%NoSave
%Mem=1900MB
#P OB98/GEN NMR

erre ene a

0 1
  C      -29.947    -499.790    -107.012
  O      -28.742    -499.608    -107.763
  P      -28.820    -498.567    -108.991
  C      -26.699    -497.182    -108.409
  O      -27.329    -498.078    -109.325
  C      -25.372    -496.655    -108.955
  O      -24.312    -497.586    -108.616
  C      -25.327    -496.456    -110.473
  O      -24.548    -495.290    -110.766
  C      -24.538    -497.663    -110.962
  O      -23.940    -497.436    -112.231
  C      -23.549    -497.824    -109.807
  N      -19.572    -500.603    -111.241
  C      -19.791    -499.251    -111.372
  N      -18.821    -498.534    -111.988
  N      -20.862    -498.642    -110.931
  C      -21.733    -499.474    -110.305
  C      -21.625    -500.831    -110.109
  C      -20.449    -501.494    -110.639
  O      -20.224    -502.702    -110.605
  N      -22.711    -501.330    -109.433
  C      -23.478    -500.277    -109.229
  N      -22.932    -499.130    -109.750
  O      -29.517    -497.282    -108.337
  O      -29.599    -499.074    -110.160
  H      -23.460    -498.256    -112.470
  H      -30.320    -497.050    -108.833
  H      -18.738    -501.024    -111.617
  H      -24.443    -500.292    -108.740
  H      -22.750    -497.073    -109.859
  H      -25.209    -498.523    -111.044
  H      -17.945    -498.930    -112.289
  H      -26.311    -496.380    -110.948
  H      -18.941    -497.530    -112.049
  H      -25.148    -495.713    -108.441
  H      -26.522    -497.702    -107.465
  H      -27.386    -496.350    -108.214
  P      -25.323    -494.069    -111.460
  C      -23.994    -492.346    -110.033
  O      -24.354    -492.803    -111.322
  O      -26.512    -493.753    -110.430
  O      -25.827    -494.366    -112.832
  H      -27.267    -493.355    -110.897
  H      -24.275    -493.056    -109.249
  H      -24.494    -491.391    -109.840
  H      -22.913    -492.196    -109.999
  H      -29.775    -500.498    -106.229
  H      -30.719    -500.153    -107.658
  H      -30.248    -498.855    -106.588

 3  4  5  6  7  8  9  10  11  12  23  26  30  31  33  0
 6-311+G(2d,p)
 ****
 35  36  37  38 0
 6-311+G(2d,p)
 ****
 1  2  13  14  15  16  17  18  19  20  21  22  24  25  27  28  29 0
 3-21G
 ****
 32  34  39  40  41  42  43  44  45  46  47  48  49 0
 3-21G
 ****


