%nproc=1
%NoSave
%Mem=1900MB
#P OB98/GEN NMR

erre ene a

0 1
  C      958.014      58.171     -19.305
  O      958.640      59.423     -19.104
  P      959.328      59.766     -17.698
  C      957.940      61.882     -17.229
  O      958.262      60.565     -16.796
  C      956.884      62.501     -16.312
  O      955.559      62.066     -16.684
  C      957.022      62.102     -14.848
  O      958.122      62.742     -14.223
  C      955.660      62.497     -14.306
  O      955.599      63.910     -14.036
  C      954.737      62.133     -15.489
  N      954.006      60.892     -15.271
  C      952.708      61.023     -14.776
  O      952.262      62.139     -14.482
  N      951.950      59.887     -14.630
  C      952.486      58.727     -14.830
  N      951.660      57.647     -14.727
  C      953.897      58.536     -15.192
  C      954.594      59.655     -15.415
  O      960.674      60.406     -17.795
  O      959.423      58.344     -16.958
  H      960.335      58.220     -16.634
  H      956.348      64.112     -13.434
  H      954.311      57.544     -15.289
  H      955.638      59.614     -15.709
  H      954.021      62.940     -15.666
  H      955.417      61.979     -13.363
  H      957.157      61.015     -14.769
  H      956.933      63.590     -16.421
  H      950.693      57.806     -14.495
  H      957.552      61.832     -18.247
  H      951.883      56.750     -15.173
  H      958.847      62.488     -17.224
  P      958.492      62.281     -12.732
  C      958.303      64.696     -11.823
  O      957.870      63.356     -11.728
  O      960.080      62.539     -12.644
  O      958.156      60.848     -12.433
  H      960.481      61.843     -12.107
  H      957.558      65.339     -11.341
  H      958.419      65.006     -12.868
  H      959.261      64.810     -11.305
  H      957.615      58.127     -20.297
  H      957.221      58.051     -18.596
  H      958.732      57.388     -19.174

 3  4  5  6  7  8  9  10  11  12  13  24  27  28  29  30  32 0
 6-311+G(2d,p)
 ****
 34  35 0
 6-311+G(2d,p)
 ****
 1  2  14  15  16  17  18  19  20  21  22  23  25  26 0
 3-21G
 ****
 31  33  36  37  38  39  40  41  42  43  44  45  46 0
 3-21G
 ****


