%nproc=1
%NoSave
%Mem=1900MB
#P OB98/GEN NMR

erre ene a

0 1
  C       31.132      33.490      74.833
  O       29.902      34.180      74.841
  H       31.888      34.130      74.373
  H       31.040      32.575      74.240
  H       31.453      33.241      75.846
  P       28.704      33.613      75.737
  C       27.103      31.591      75.632
  O       28.279      32.196      75.116
  C       27.022      30.117      75.216
  O       26.865      30.043      73.776
  C       28.311      29.364      75.563
  O       28.078      27.977      75.791
  C       29.142      29.524      74.300
  O       30.144      28.518      74.158
  C       28.064      29.478      73.220
  N       31.189      29.730      69.202
  C       31.279      28.937      70.329
  N       32.340      28.099      70.390
  N       30.421      28.979      71.314
  C       29.453      29.912      71.149
  C       29.273      30.771      70.089
  C       30.210      30.691      68.989
  O       30.190      31.386      67.978
  N       28.184      31.584      70.283
  C       27.709      31.221      71.457
  N       28.430      30.193      72.012
  O       27.463      34.547      75.344
  O       28.946      33.614      77.216
  H       29.686      27.668      74.019
  H       26.793      34.535      76.050
  H       31.860      29.637      68.459
  H       26.843      31.656      71.939
  H       27.845      28.442      72.935
  H       29.657      30.487      74.348
  H       33.117      28.180      69.754
  H       28.825      29.784      76.424
  H       32.589      27.752      71.321
  H       26.134      29.650      75.656
  H       26.254      32.150      75.232
  H       27.071      31.687      76.718
  P       27.673      27.502      77.266
  C       28.955      26.915      79.505
  O       28.988      27.270      78.141
  O       27.095      26.030      77.045
  O       26.686      28.394      77.952
  H       26.148      25.998      77.275
  H       29.955      26.816      79.872
  H       28.440      25.984      79.619
  H       28.445      27.675      80.059

 6  7  8  9  10  11  12  13  14  15  26  29  33  34 0
 6-311+G(2d,p)
 ****
 36  38  39  40  41 0
 6-311+G(2d,p)
 ****
 1  2  3  4  5  16  17  18  19  20  21  22  23  24  25 0
 3-21G
 ****
 27  28  30  31  32  35  37  42  43  44  45  46  47 0
 3-21G
 ****
 48  49 0
 3-21G
 ****


