%nproc=1
%NoSave
%Mem=1900MB
#P OB98/GEN NMR

erre ene a

0 1
  C     -108.991       8.375     179.350
  O     -109.688       8.385     180.580
  H     -108.208       7.613     179.395
  H     -108.528       9.348     179.167
  H     -109.678       8.131     178.533
  P     -110.813       9.520     180.758
  C     -110.621      12.100     180.414
  O     -109.968      10.889     180.769
  C     -109.729      13.291     180.756
  O     -109.649      13.471     182.189
  C     -108.282      13.157     180.285
  O     -108.117      13.406     178.898
  C     -107.631      14.233     181.137
  O     -107.959      15.532     180.605
  C     -108.325      13.993     182.494
  N     -107.590      13.057     183.355
  C     -106.288      13.423     183.711
  O     -105.797      14.478     183.309
  N     -105.550      12.562     184.489
  C     -106.070      11.446     184.897
  N     -105.289      10.635     185.662
  C     -107.443      11.026     184.557
  C     -108.138      11.870     183.794
  O     -111.256       9.367     182.289
  O     -111.940       9.485     179.781
  H     -107.393      15.661     179.821
  H     -111.844      10.121     182.546
  H     -107.827      10.079     184.908
  H     -109.155      11.628     183.503
  H     -108.461      14.936     183.040
  H     -106.543      14.165     181.162
  H     -107.858      12.182     180.560
  H     -110.202      14.191     180.337
  H     -104.334      10.919     185.828
  H     -111.562      12.160     180.972
  H     -105.548       9.684     185.900
  H     -110.839      12.109     179.342
  P     -106.989      12.558     178.128
  C     -104.416      12.231     178.395
  O     -105.577      12.967     178.772
  O     -106.948      13.235     176.681
  O     -107.254      11.083     178.051
  H     -106.754      12.575     175.991
  H     -103.563      12.624     178.907
  H     -104.268      12.315     177.339
  H     -104.546      11.201     178.656

 6  7  8  9  10  11  12  13  14  15  16  26  30  31  32  33  35 0
 6-311+G(2d,p)
 ****
 37  38 0
 6-311+G(2d,p)
 ****
 1  2  3  4  5  17  18  19  20  21  22  23  24  25 0
 3-21G
 ****
 27  28  29  34  36  39  40  41  42  43  44  45  46 0
 3-21G
 ****


