%nproc=1
%NoSave
%Mem=1900MB
#P OB98/GEN NMR

erre ene a

0 1
  C      -13.033    -206.281     325.878
  O      -14.076    -205.477     326.392
  H      -13.113    -206.345     324.791
  H      -12.075    -205.823     326.135
  H      -13.075    -207.282     326.315
  P      -15.572    -205.979     326.100
  C      -17.130    -203.914     326.084
  O      -16.559    -204.960     326.857
  C      -17.242    -202.642     326.928
  O      -18.495    -202.695     327.660
  C      -16.102    -202.462     327.943
  O      -15.539    -201.146     327.838
  C      -16.782    -202.592     329.291
  O      -16.204    -201.756     330.289
  C      -18.220    -202.205     328.979
  N      -20.384    -201.473     333.540
  C      -19.804    -200.611     332.680
  N      -19.333    -200.851     331.440
  C      -19.540    -202.134     331.092
  C      -20.140    -203.124     331.853
  C      -20.555    -202.757     333.144
  N      -21.097    -203.651     334.043
  N      -20.169    -204.323     331.165
  C      -19.558    -204.073     330.024
  N      -19.148    -202.766     329.943
  O      -15.683    -207.325     326.963
  O      -15.872    -206.226     324.661
  H      -16.615    -201.996     331.141
  H      -15.857    -208.072     326.360
  H      -19.695    -199.591     333.037
  H      -19.346    -204.800     329.249
  H      -18.356    -201.116     328.968
  H      -16.711    -203.635     329.628
  H      -15.307    -203.206     327.821
  H      -17.299    -201.779     326.254
  H      -18.131    -204.209     325.751
  H      -21.258    -203.330     334.983
  H      -21.121    -204.630     333.792
  H      -16.507    -203.734     325.204
  P      -14.778    -200.805     326.462
  C      -12.890    -199.629     327.804
  O      -13.811    -199.546     326.724
  O      -15.947    -200.214     325.539
  O      -14.128    -201.990     325.825
  H      -16.005    -200.728     324.709
  H      -12.319    -198.726     327.856
  H      -12.232    -200.459     327.649
  H      -13.426    -199.765     328.720

 6  7  8  9  10  11  12  13  14  15  25  28  32  33  34  35 0
 6-311+G(2d,p)
 ****
 36  39  40 0
 6-311+G(2d,p)
 ****
 1  2  3  4  5  16  17  18  19  20  21  22  23  24 0
 3-21G
 ****
 26  27  29  30  31  37  38  41  42  43  44  45  46  47  48 0
 3-21G
 ****


