%nproc=1
%NoSave
%Mem=1900MB
#P OB98/GEN NMR

erre ene a

0 1
  C     -224.999      10.939    -244.797
  O     -225.838      10.839    -245.926
  H     -225.621      11.095    -243.912
  H     -224.329      11.796    -244.911
  H     -224.409      10.029    -244.655
  P     -225.255      10.181    -247.263
  C     -224.324      12.460    -248.040
  O     -224.033      11.096    -247.767
  C     -223.354      13.060    -249.058
  O     -223.682      14.445    -249.306
  C     -221.909      13.050    -248.559
  O     -221.205      11.838    -248.762
  C     -221.289      14.184    -249.372
  O     -220.853      13.716    -250.657
  C     -222.456      15.166    -249.523
  N     -220.073      19.506    -248.253
  C     -219.766      18.605    -249.255
  N     -218.646      18.867    -249.969
  N     -220.479      17.542    -249.512
  C     -221.513      17.361    -248.658
  C     -221.909      18.175    -247.618
  C     -221.142      19.380    -247.376
  O     -221.368      20.207    -246.495
  N     -223.009      17.666    -246.970
  C     -223.231      16.511    -247.566
  N     -222.363      16.294    -248.614
  O     -226.388      10.486    -248.359
  O     -224.966       8.713    -247.183
  H     -221.581      13.210    -251.062
  H     -226.357       9.815    -249.064
  H     -219.502      20.323    -248.117
  H     -224.015      15.812    -247.298
  H     -222.505      15.577    -250.541
  H     -220.412      14.606    -248.874
  H     -218.005      19.607    -249.731
  H     -221.870      13.325    -247.498
  H     -218.246      18.106    -250.522
  H     -223.457      12.527    -250.011
  H     -224.246      12.995    -247.090
  H     -225.357      12.565    -248.386
  P     -220.140      11.337    -247.674
  C     -218.090      12.411    -248.864
  O     -218.909      12.360    -247.717
  O     -219.555      10.005    -248.342
  O     -220.704      11.078    -246.318
  H     -220.014       9.218    -247.990
  H     -217.323      13.143    -248.722
  H     -218.683      12.676    -249.714
  H     -217.643      11.453    -249.026

 6  7  8  9  10  11  12  13  14  15  26  29  33  34 0
 6-311+G(2d,p)
 ****
 36  38  39  40  41 0
 6-311+G(2d,p)
 ****
 1  2  3  4  5  16  17  18  19  20  21  22  23  24  25 0
 3-21G
 ****
 27  28  30  31  32  35  37  42  43  44  45  46  47 0
 3-21G
 ****
 48  49 0
 3-21G
 ****


