%nproc=1
%NoSave
%Mem=1900MB
#P OB98/GEN NMR

erre ene a

0 1
  C      282.395    -240.339     221.839
  O      282.930    -239.020     221.705
  P      283.931    -238.695     220.499
  C      283.376    -236.172     220.636
  O      284.395    -237.164     220.596
  C      283.797    -235.023     221.559
  O      283.873    -235.455     222.939
  C      285.189    -234.491     221.244
  O      285.340    -233.782     220.031
  C      285.555    -233.764     222.526
  O      285.002    -232.449     222.561
  C      284.887    -234.662     223.594
  N      285.847    -235.506     224.304
  C      286.756    -234.844     225.123
  O      286.802    -233.620     225.231
  N      287.643    -235.640     225.795
  C      287.733    -236.999     225.702
  O      288.564    -237.661     226.308
  C      286.762    -237.640     224.801
  C      285.878    -236.878     224.152
  O      283.483    -239.141     219.149
  O      285.265    -239.482     220.929
  H      285.289    -231.989     221.750
  H      285.639    -239.895     220.127
  H      288.305    -235.178     226.400
  H      286.808    -238.716     224.698
  H      285.154    -237.331     223.485
  H      284.368    -234.047     224.341
  H      286.637    -233.659     222.636
  H      285.868    -235.352     221.165
  H      283.044    -234.235     221.502
  H      282.442    -236.616     220.985
  H      283.187    -235.814     219.618
  P      285.827    -234.468     218.667
  C      283.885    -233.334     217.375
  O      285.268    -233.600     217.438
  O      285.711    -235.951     218.565
  O      287.386    -234.077     218.658
  H      287.882    -234.801     218.230
  H      283.684    -232.751     216.472
  H      283.567    -232.753     218.244
  H      283.319    -234.267     217.321
  H      281.750    -240.377     222.692
  H      283.196    -241.038     221.965
  H      281.839    -240.589     220.960

 3  4  5  6  7  8  9  10  11  12  13  23  28  29  30  31  32 0
 6-311+G(2d,p)
 ****
 33  34 0
 6-311+G(2d,p)
 ****
 1  2  14  15  16  17  18  19  20  21  22  24  25  26  27 0
 3-21G
 ****
 35  36  37  38  39  40  41  42  43  44  45 0
 3-21G
 ****


