%nproc=1
%NoSave
%Mem=1900MB
#P OB98/GEN NMR

erre ene a

0 1
  C     -138.599    -901.234     555.784
  O     -137.663    -901.289     554.719
  H     -138.052    -901.053     556.718
  H     -139.148    -902.173     555.869
  H     -139.297    -900.410     555.625
  P     -138.179    -901.806     553.291
  C     -137.992    -904.028     551.991
  O     -137.570    -903.291     553.129
  C     -136.842    -904.272     551.018
  O     -136.361    -903.028     550.467
  C     -135.615    -904.897     551.663
  O     -135.791    -906.223     552.111
  C     -134.530    -904.607     550.627
  O     -134.531    -905.551     549.556
  C     -134.973    -903.219     550.109
  N     -134.137    -902.137     550.620
  C     -133.226    -901.581     549.715
  O     -133.111    -901.969     548.543
  N     -132.450    -900.574     550.187
  C     -132.439    -900.109     551.472
  O     -131.693    -899.203     551.848
  C     -133.385    -900.760     552.400
  C     -134.185    -901.723     551.936
  O     -137.880    -900.904     552.125
  O     -139.737    -902.082     553.513
  H     -135.450    -905.626     549.246
  H     -140.214    -902.166     552.651
  H     -131.792    -900.144     549.549
  H     -133.399    -900.414     553.428
  H     -134.887    -902.222     552.600
  H     -134.932    -903.187     549.007
  H     -133.525    -904.611     551.063
  H     -135.347    -904.313     552.552
  H     -137.213    -904.884     550.187
  H     -138.772    -903.445     551.481
  H     -138.424    -904.984     552.312
  P     -135.263    -906.773     553.511
  C     -133.121    -907.984     554.400
  O     -133.784    -907.371     553.303
  O     -136.225    -907.564     554.332
  O     -134.964    -905.387     554.305
  H     -135.157    -905.556     555.254
  H     -132.155    -908.324     554.089
  H     -133.698    -908.817     554.745
  H     -133.011    -907.273     555.192

 6  7  8  9  10  11  12  13  14  15  16  26  31  32  33  34  35 0
 6-311+G(2d,p)
 ****
 36  37 0
 6-311+G(2d,p)
 ****
 1  2  3  4  5  17  18  19  20  21  22  23  24  25 0
 3-21G
 ****
 27  28  29  30  38  39  40  41  42  43  44  45 0
 3-21G
 ****


