%nproc=1
%NoSave
%Mem=1900MB
#P OB98/GEN NMR

erre ene a

0 1
  C     -898.795    1725.739     852.142
  O     -899.455    1726.583     851.216
  H     -897.830    1725.451     851.725
  H     -899.377    1724.847     852.327
  H     -898.624    1726.268     853.092
  P     -900.957    1727.033     851.607
  C     -901.884    1726.623     849.210
  O     -901.562    1727.561     850.209
  C     -902.018    1727.330     847.838
  O     -903.189    1728.172     847.825
  C     -900.854    1728.261     847.526
  O     -899.697    1727.569     847.056
  C     -901.477    1729.093     846.401
  O     -901.564    1728.282     845.184
  C     -902.886    1729.322     847.004
  N     -902.970    1730.572     847.802
  C     -903.127    1731.772     847.069
  O     -903.192    1731.761     845.827
  N     -903.180    1732.956     847.747
  C     -903.101    1732.934     849.046
  N     -903.149    1734.143     849.666
  C     -902.956    1731.725     849.866
  C     -902.907    1730.576     849.173
  O     -900.741    1728.376     852.441
  O     -901.781    1725.986     852.300
  H     -902.194    1728.745     844.618
  H     -901.615    1728.812     852.614
  H     -902.868    1731.761     850.916
  H     -902.776    1729.643     849.682
  H     -903.641    1729.360     846.201
  H     -900.932    1730.000     846.160
  H     -900.619    1728.928     848.338
  H     -902.154    1726.559     847.083
  H     -903.200    1734.979     849.094
  H     -902.825    1726.135     849.456
  H     -902.965    1734.285     850.671
  H     -901.096    1725.865     849.142
  P     -898.277    1728.097     847.581
  C     -897.847    1729.014     845.182
  O     -897.340    1728.295     846.279
  O     -897.655    1726.792     848.289
  O     -898.310    1729.285     848.508
  H     -897.106    1727.050     849.061
  H     -897.108    1729.054     844.409
  H     -898.094    1730.008     845.491
  H     -898.725    1728.527     844.811

 6  7  8  9  10  11  12  13  14  15  16  26  30  31  32  33  35 0
 6-311+G(2d,p)
 ****
 37  38 0
 6-311+G(2d,p)
 ****
 1  2  3  4  5  17  18  19  20  21  22  23  24  25 0
 3-21G
 ****
 27  28  29  34  36  39  40  41  42  43  44  45  46 0
 3-21G
 ****


