%nproc=1
%NoSave
%Mem=1900MB
#P OB98/GEN NMR

erre ene a

0 1
  C      322.371       6.787     485.060
  O      323.557       7.038     485.778
  H      322.486       5.841     484.518
  H      322.192       7.578     484.328
  H      321.516       6.701     485.736
  P      323.683       8.390     486.638
  C      323.526       7.310     488.961
  O      322.859       8.110     487.994
  C      324.205       8.174     490.024
  O      323.192       8.907     490.773
  C      325.044       7.374     491.030
  O      326.317       8.003     491.206
  C      324.246       7.480     492.323
  O      325.046       7.307     493.486
  C      323.601       8.864     492.153
  N      322.489       9.063     493.069
  C      322.826       9.255     494.414
  O      324.009       9.257     494.767
  N      321.819       9.389     495.338
  C      320.583       9.289     494.956
  N      319.634       9.402     495.925
  C      320.185       9.058     493.553
  C      321.176       8.956     492.670
  O      323.293       9.630     485.905
  O      325.201       8.413     487.145
  H      324.547       7.643     494.263
  H      325.451       9.341     487.364
  H      319.138       8.973     493.292
  H      320.984       8.784     491.618
  H      324.340       9.658     492.315
  H      323.470       6.705     492.331
  H      325.196       6.336     490.737
  H      324.815       8.934     489.515
  H      319.951       9.549     496.874
  H      324.265       6.682     488.446
  H      318.643       9.316     495.753
  H      322.785       6.666     489.446
  P      327.514       7.049     491.705
  C      327.870       6.028     489.345
  O      327.590       5.788     490.712
  O      326.948       6.433     493.076
  O      328.798       7.774     491.920
  H      327.439       6.806     493.830
  H      327.888       5.098     488.816
  H      328.822       6.508     489.255
  H      327.112       6.660     488.931

 6  7  8  9  10  11  12  13  14  15  16  26  30  31  32  33  35 0
 6-311+G(2d,p)
 ****
 37  38 0
 6-311+G(2d,p)
 ****
 1  2  3  4  5  17  18  19  20  21  22  23  24  25 0
 3-21G
 ****
 27  28  29  34  36  39  40  41  42  43  44  45  46 0
 3-21G
 ****


