%nproc=1
%NoSave
%Mem=1900MB
#P OB98/GEN NMR

erre ene a

0 1
  C       28.894     -15.645      45.989
  O       28.339     -16.943      45.960
  H       28.102     -14.934      46.241
  H       29.296     -15.383      45.007
  H       29.680     -15.574      46.744
  P       29.320     -18.197      45.777
  C       28.015     -18.624      43.595
  O       29.291     -18.589      44.223
  C       28.103     -18.000      42.205
  O       28.531     -16.623      42.308
  C       29.117     -18.674      41.291
  O       28.636     -19.909      40.799
  C       29.317     -17.594      40.242
  O       28.275     -17.628      39.259
  C       29.230     -16.303      41.085
  N       30.551     -15.739      41.364
  C       31.163     -15.060      40.315
  O       30.649     -14.913      39.209
  N       32.429     -14.601      40.563
  C       33.170     -14.875      41.676
  O       34.375     -14.659      41.752
  C       32.451     -15.541      42.773
  C       31.198     -15.949      42.565
  O       29.102     -19.331      46.722
  O       30.779     -17.560      45.957
  H       31.111     -17.766      46.851
  H       28.620     -17.135      38.487
  H       32.896     -14.144      39.792
  H       32.984     -15.712      43.700
  H       30.657     -16.473      43.347
  H       28.630     -15.546      40.564
  H       30.269     -17.711      39.721
  H       30.060     -18.823      41.831
  H       27.102     -18.013      41.756
  H       27.307     -18.054      44.207
  H       27.676     -19.663      43.535
  P       29.376     -21.276      41.186
  C       29.978     -21.702      38.724
  O       30.468     -21.593      40.056
  O       28.473     -22.416      41.521
  O       30.281     -20.882      42.448
  H       30.125     -21.531      43.162
  H       30.791     -21.914      38.061
  H       29.515     -20.781      38.438
  H       29.260     -22.493      38.672

 6  7  8  9  10  11  12  13  14  15  16  27  31  32  33  34  35 0
 6-311+G(2d,p)
 ****
 36  37 0
 6-311+G(2d,p)
 ****
 1  2  3  4  5  17  18  19  20  21  22  23  24  25 0
 3-21G
 ****
 26  28  29  30  38  39  40  41  42  43  44  45 0
 3-21G
 ****


