%nproc=1
%NoSave
%Mem=1900MB
#P OB98/GEN NMR

erre ene a

0 1
  C      165.063    -367.190     -75.071
  O      165.321    -368.471     -75.611
  H      164.171    -366.776     -75.554
  H      165.910    -366.524     -75.262
  H      164.880    -367.261     -73.995
  P      166.594    -369.255     -75.035
  C      165.709    -370.992     -73.320
  O      166.082    -370.739     -74.667
  C      165.582    -372.499     -73.076
  O      164.706    -373.067     -74.093
  C      166.918    -373.256     -73.140
  O      166.910    -374.290     -72.145
  C      166.887    -373.895     -74.520
  O      167.738    -375.035     -74.603
  C      165.398    -374.203     -74.656
  N      163.945    -377.748     -77.924
  C      164.218    -377.831     -76.571
  N      164.083    -379.049     -75.995
  N      164.591    -376.813     -75.843
  C      164.655    -375.647     -76.539
  C      164.427    -375.436     -77.882
  C      164.034    -376.580     -78.679
  O      163.799    -376.571     -79.887
  N      164.634    -374.117     -78.215
  C      164.987    -373.541     -77.079
  N      165.009    -374.428     -76.035
  O      166.832    -368.584     -73.599
  O      167.818    -369.207     -75.887
  H      167.431    -375.686     -73.939
  H      167.774    -368.605     -73.356
  H      163.676    -378.565     -78.439
  H      165.240    -372.495     -76.959
  H      165.105    -375.099     -74.092
  H      167.206    -373.169     -75.277
  H      163.770    -379.871     -76.484
  H      167.794    -372.617     -72.998
  H      164.265    -379.126     -74.998
  H      165.086    -372.656     -72.113
  H      164.748    -370.509     -73.118
  H      166.469    -370.572     -72.651
  P      168.025    -374.223     -70.994
  C      166.844    -372.652     -69.293
  O      167.296    -373.970     -69.583
  O      168.760    -372.823     -71.290
  O      168.993    -375.360     -71.025
  H      169.650    -372.995     -71.653
  H      166.383    -372.637     -68.328
  H      166.133    -372.348     -70.032
  H      167.676    -371.980     -69.301

 6  7  8  9  10  11  12  13  14  15  26  29  33  34 0
 6-311+G(2d,p)
 ****
 36  38  39  40  41 0
 6-311+G(2d,p)
 ****
 1  2  3  4  5  16  17  18  19  20  21  22  23  24  25 0
 3-21G
 ****
 27  28  30  31  32  35  37  42  43  44  45  46  47 0
 3-21G
 ****
 48  49 0
 3-21G
 ****


