%nproc=1
%NoSave
%Mem=1900MB
#P OB98/GEN NMR

erre ene a

0 1
  C     -147.787     -91.180     -88.622
  O     -146.780     -91.578     -87.715
  H     -148.723     -91.672     -88.342
  H     -147.523     -91.484     -89.638
  H     -147.937     -90.098     -88.586
  P     -145.332     -90.896     -87.817
  C     -146.430     -88.729     -86.953
  O     -145.571     -89.314     -87.924
  C     -145.944     -87.321     -86.612
  O     -145.717     -86.564     -87.820
  C     -146.944     -86.508     -85.794
  O     -146.954     -86.932     -84.446
  C     -146.416     -85.100     -86.032
  O     -145.281     -84.828     -85.197
  C     -145.992     -85.176     -87.519
  N     -147.002     -84.628     -88.426
  C     -146.866     -83.282     -88.753
  O     -145.963     -82.568     -88.318
  N     -147.838     -82.768     -89.570
  C     -148.952     -83.431     -90.002
  O     -149.902     -82.877     -90.544
  C     -149.001     -84.867     -89.688
  C     -148.047     -85.389     -88.912
  O     -144.417     -91.468     -88.847
  O     -144.732     -91.066     -86.341
  H     -144.104     -91.814     -86.332
  H     -145.600     -84.864     -84.272
  H     -147.775     -81.782     -89.776
  H     -149.836     -85.444     -90.065
  H     -148.080     -86.438     -88.641
  H     -145.055     -84.625     -87.678
  H     -147.164     -84.335     -85.818
  H     -147.946     -86.589     -86.236
  H     -144.989     -87.407     -86.081
  H     -146.406     -89.352     -86.050
  H     -147.451     -88.707     -87.345
  P     -148.239     -86.711     -83.517
  C     -148.644     -89.237     -83.686
  O     -149.235     -87.946     -83.750
  O     -148.878     -85.367     -83.631
  O     -147.697     -86.961     -82.030
  H     -147.931     -86.193     -81.470
  H     -149.394     -89.981     -83.855
  H     -148.208     -89.382     -82.720
  H     -147.885     -89.319     -84.436

 6  7  8  9  10  11  12  13  14  15  16  27  31  32  33  34  35 0
 6-311+G(2d,p)
 ****
 36  37 0
 6-311+G(2d,p)
 ****
 1  2  3  4  5  17  18  19  20  21  22  23  24  25 0
 3-21G
 ****
 26  28  29  30  38  39  40  41  42  43  44  45 0
 3-21G
 ****


