%nproc=1
%NoSave
%Mem=1900MB
#P OB98/GEN NMR

erre ene a

0 1
  C      437.944     225.573     317.980
  O      437.091     225.498     319.111
  P      436.735     226.810     319.970
  C      439.100     226.521     320.975
  O      438.156     227.417     320.395
  C      439.722     227.156     322.221
  O      439.769     228.586     322.061
  C      438.949     226.904     323.509
  O      439.168     225.586     323.989
  C      439.493     228.026     324.389
  O      440.775     227.665     324.924
  C      439.646     229.178     323.376
  N      438.543     230.133     323.426
  C      438.892     231.484     323.524
  O      440.074     231.835     323.563
  N      437.891     232.424     323.551
  C      436.648     232.045     323.504
  N      435.700     233.020     323.463
  C      436.236     230.628     323.452
  C      437.223     229.737     323.410
  O      435.790     226.584     321.096
  O      436.219     227.867     318.893
  H      440.637     226.860     325.459
  H      435.245     227.812     318.718
  H      435.189     230.365     323.433
  H      437.006     228.683     323.355
  H      440.588     229.711     323.552
  H      438.835     228.275     325.232
  H      437.873     227.053     323.342
  H      440.752     226.785     322.312
  H      436.028     233.972     323.325
  H      439.889     226.322     320.244
  H      434.762     232.832     323.140
  H      438.600     225.577     321.223
  P      437.874     224.689     324.292
  C      437.932     225.191     326.839
  O      437.212     225.304     325.619
  O      438.506     223.296     324.773
  O      436.954     224.524     323.132
  H      438.473     222.641     324.047
  H      437.469     225.856     327.575
  H      438.975     225.486     326.704
  H      437.876     224.164     327.208
  H      438.054     224.599     317.551
  H      438.903     225.941     318.280
  H      437.519     226.236     317.256

 3  4  5  6  7  8  9  10  11  12  13  23  27  28  29  30  32 0
 6-311+G(2d,p)
 ****
 34  35 0
 6-311+G(2d,p)
 ****
 1  2  14  15  16  17  18  19  20  21  22  24  25  26 0
 3-21G
 ****
 31  33  36  37  38  39  40  41  42  43  44  45  46 0
 3-21G
 ****


