%nproc=1
%NoSave
%Mem=1900MB
#P OB98/GEN NMR

erre ene a

0 1
  C       35.234    -840.375     -13.426
  O       36.411    -840.354     -14.226
  P       36.590    -839.152     -15.282
  C       38.906    -838.631     -14.259
  O       37.658    -838.098     -14.699
  C       39.824    -837.519     -13.726
  O       39.970    -836.504     -14.760
  C       39.289    -836.768     -12.500
  O       39.621    -837.278     -11.208
  C       39.999    -835.426     -12.631
  O       41.319    -835.517     -12.076
  C       40.077    -835.200     -14.134
  N       38.815    -830.320     -15.024
  C       39.946    -830.883     -14.511
  N       40.184    -832.180     -14.290
  C       39.150    -832.958     -14.703
  C       37.951    -832.503     -15.232
  C       37.786    -831.119     -15.379
  N       36.647    -830.543     -15.889
  N       37.117    -833.582     -15.516
  C       37.800    -834.652     -15.127
  N       39.043    -834.314     -14.642
  O       35.330    -838.559     -15.817
  O       37.424    -839.858     -16.465
  H       41.763    -834.672     -12.298
  H       37.115    -839.530     -17.328
  H       40.743    -830.205     -14.226
  H       37.437    -835.666     -15.184
  H       41.041    -834.785     -14.443
  H       39.488    -834.627     -12.085
  H       38.193    -836.624     -12.562
  H       40.812    -837.925     -13.519
  H       39.407    -839.154     -15.077
  H       36.606    -829.535     -15.925
  H       35.862    -831.131     -16.120
  H       38.684    -839.380     -13.493
  P       38.514    -837.967     -10.274
  C       39.831    -840.154      -9.661
  O       38.770    -839.549     -10.385
  O       37.104    -837.548     -10.545
  O       39.022    -837.613      -8.804
  H       39.853    -838.059      -8.544
  H       39.722    -841.228      -9.699
  H       39.851    -839.814      -8.618
  H       40.792    -839.890     -10.145
  H       35.258    -841.226     -12.778
  H       34.373    -840.433     -14.059
  H       35.186    -839.482     -12.839

 3  4  5  6  7  8  9  10  11  12  22  25  29  30  31  32 0
 6-311+G(2d,p)
 ****
 33  36  37 0
 6-311+G(2d,p)
 ****
 1  2  13  14  15  16  17  18  19  20  21  23  24  26 0
 3-21G
 ****
 27  28  34  35  38  39  40  41  42  43  44  45  46  47  48 0
 3-21G
 ****


