%nproc=1
%NoSave
%Mem=1900MB
#P OB98/GEN NMR

erre ene a

0 1
  C     -890.380     261.767    -149.598
  O     -891.230     261.310    -150.629
  H     -889.490     261.142    -149.575
  H     -890.890     261.684    -148.634
  H     -890.070     262.805    -149.764
  P     -892.470     262.224    -151.077
  C     -894.010     260.792    -149.576
  O     -893.790     261.323    -150.878
  C     -895.230     259.863    -149.574
  O     -896.420     260.644    -149.849
  C     -895.160     258.746    -150.625
  O     -895.860     257.608    -150.091
  C     -895.940     259.351    -151.773
  O     -896.350     258.374    -152.705
  C     -897.050     260.075    -151.016
  N     -897.720     261.089    -151.837
  C     -898.680     260.635    -152.732
  O     -898.950     259.438    -152.877
  N     -899.290     261.581    -153.493
  C     -899.000     262.922    -153.494
  O     -899.550     263.727    -154.228
  C     -897.940     263.335    -152.560
  C     -897.360     262.420    -151.780
  O     -892.350     262.865    -152.419
  O     -892.610     263.306    -149.902
  H     -897.010     257.774    -152.304
  H     -892.970     264.139    -150.261
  H     -900.000     261.270    -154.139
  H     -897.680     264.386    -152.539
  H     -896.590     262.703    -151.077
  H     -897.810     259.364    -150.676
  H     -895.310     260.073    -152.323
  H     -894.130     258.470    -150.892
  H     -895.350     259.452    -148.565
  H     -894.190     261.639    -148.897
  H     -893.130     260.252    -149.250
  P     -895.200     256.627    -149.010
  C     -894.420     254.891    -150.748
  O     -895.230     255.130    -149.598
  O     -895.780     256.758    -147.636
  O     -893.650     257.003    -149.014
  H     -893.260     256.814    -148.134
  H     -894.519     253.869    -151.048
  H     -893.397     255.096    -150.512
  H     -894.737     255.529    -151.546

 6  7  8  9  10  11  12  13  14  15  16  26  31  32  33  34  35 0
 6-311+G(2d,p)
 ****
 36  37 0
 6-311+G(2d,p)
 ****
 1  2  3  4  5  17  18  19  20  21  22  23  24  25 0
 3-21G
 ****
 27  28  29  30  38  39  40  41  42  43  44  45 0
 3-21G
 ****


