%nproc=1
%NoSave
%Mem=1900MB
#P OB98/GEN NMR

erre ene a

0 1
  C     -360.226     168.456    -330.269
  O     -360.876     167.371    -329.645
  H     -360.501     169.377    -329.751
  H     -360.546     168.531    -331.312
  H     -359.141     168.336    -330.221
  P     -360.491     165.893    -330.139
  C     -362.766     164.645    -330.297
  O     -361.598     164.901    -329.527
  C     -364.023     164.891    -329.456
  O     -363.948     164.075    -328.258
  C     -364.199     166.346    -329.025
  O     -365.588     166.676    -329.077
  C     -363.731     166.357    -327.579
  O     -364.310     167.413    -326.813
  C     -364.125     164.942    -327.120
  N     -363.324     164.510    -325.976
  C     -364.026     164.199    -324.806
  O     -365.252     164.310    -324.767
  N     -363.314     163.838    -323.692
  C     -362.016     163.857    -323.716
  N     -361.371     163.516    -322.568
  C     -361.239     164.242    -324.915
  C     -361.950     164.548    -325.998
  O     -359.181     165.545    -329.290
  O     -360.275     165.747    -331.611
  H     -363.920     168.262    -327.117
  H     -358.581     164.959    -329.792
  H     -360.164     164.272    -324.876
  H     -361.471     164.844    -326.923
  H     -365.184     164.911    -326.844
  H     -362.642     166.472    -327.549
  H     -363.634     167.052    -329.643
  H     -364.894     164.542    -330.030
  H     -361.938     163.270    -321.768
  H     -362.751     163.598    -330.620
  H     -360.362     163.543    -322.462
  H     -362.761     165.290    -331.182
  P     -365.973     168.054    -329.812
  C     -368.080     168.391    -328.326
  O     -367.556     168.274    -329.643
  O     -365.794     167.707    -331.361
  O     -365.121     169.208    -329.396
  H     -365.009     168.161    -331.716
  H     -369.139     168.533    -328.375
  H     -367.630     169.229    -327.836
  H     -367.864     167.499    -327.776

 6  7  8  9  10  11  12  13  14  15  16  26  30  31  32  33  35 0
 6-311+G(2d,p)
 ****
 37  38 0
 6-311+G(2d,p)
 ****
 1  2  3  4  5  17  18  19  20  21  22  23  24  25 0
 3-21G
 ****
 27  28  29  34  36  39  40  41  42  43  44  45  46 0
 3-21G
 ****


