%nproc=1
%NoSave
%Mem=1900MB
#P OB98/GEN NMR

erre ene a

0 1
  C      -84.906      25.126      58.185
  O      -84.449      26.055      59.147
  P      -84.445      27.626      58.845
  C      -82.157      28.116      57.804
  O      -82.940      28.156      58.989
  C      -80.663      28.168      58.121
  O      -80.338      29.456      58.704
  C      -80.191      27.081      59.096
  O      -78.894      26.654      58.663
  C      -80.093      27.820      60.416
  O      -79.225      27.176      61.336
  C      -79.633      29.200      59.936
  N      -79.883      30.243      60.918
  C      -78.918      30.421      61.912
  O      -77.978      29.630      62.010
  N      -79.055      31.479      62.775
  C      -80.151      32.176      62.766
  N      -80.214      33.257      63.590
  C      -81.297      31.854      61.893
  C      -81.083      30.917      60.975
  O      -85.456      28.419      59.606
  O      -84.714      27.725      57.267
  H      -85.469      28.323      57.109
  H      -79.315      27.608      62.211
  H      -82.233      32.381      62.009
  H      -81.853      30.627      60.268
  H      -78.562      29.187      59.699
  H      -81.087      27.886      60.876
  H      -80.863      26.216      59.126
  H      -80.112      28.091      57.178
  H      -79.394      33.469      64.144
  H      -82.419      28.982      57.191
  H      -80.869      34.020      63.428
  H      -82.398      27.216      57.228
  P      -78.693      25.112      58.259
  C      -77.341      24.253      60.301
  O      -77.332      24.600      58.934
  O      -78.275      25.234      56.713
  O      -79.891      24.226      58.390
  H      -78.505      24.405      56.254
  H      -76.324      23.996      60.603
  H      -77.987      23.386      60.471
  H      -77.685      25.094      60.912
  H      -84.827      24.135      58.580
  H      -84.309      25.206      57.300
  H      -85.928      25.334      57.946

 3  4  5  6  7  8  9  10  11  12  13  24  27  28  29  30  32 0
 6-311+G(2d,p)
 ****
 34  35 0
 6-311+G(2d,p)
 ****
 1  2  14  15  16  17  18  19  20  21  22  23  25  26 0
 3-21G
 ****
 31  33  36  37  38  39  40  41  42  43  44  45  46 0
 3-21G
 ****


