%nproc=1
%NoSave
%Mem=1900MB
#P OB98/GEN NMR

erre ene a

0 1
  C      410.979     134.712      71.242
  O      410.730     136.103      71.319
  H      411.060     134.400      70.195
  H      411.922     134.489      71.750
  H      410.170     134.159      71.733
  P      409.406     136.644      70.596
  C      409.969     138.948      71.682
  O      409.596     138.236      70.504
  C      410.304     140.388      71.317
  O      411.583     140.448      70.648
  C      409.299     141.033      70.364
  O      408.147     141.528      71.028
  C      410.137     142.171      69.796
  O      410.227     143.236      70.755
  C      411.508     141.486      69.628
  N      413.217     142.242      64.856
  C      413.221     143.035      65.953
  N      412.763     142.752      67.194
  C      412.281     141.499      67.241
  C      412.210     140.582      66.208
  C      412.708     140.996      64.965
  N      412.671     140.202      63.830
  N      411.621     139.406      66.643
  C      411.348     139.611      67.914
  N      411.697     140.877      68.321
  O      408.266     136.488      71.715
  O      409.051     135.990      69.304
  H      410.894     143.866      70.422
  H      407.377     136.574      71.313
  H      413.645     144.030      65.820
  H      410.889     138.891      68.584
  H      412.345     142.169      69.794
  H      409.714     142.589      68.879
  H      409.028     140.352      69.549
  H      410.387     140.973      72.247
  H      410.845     138.463      72.131
  H      412.913     140.637      62.953
  H      412.164     139.328      63.869
  H      409.134     138.919      72.397
  P      406.746     141.455      70.251
  C      405.561     140.729      72.441
  O      405.596     141.637      71.347
  O      406.636     139.905      69.849
  O      406.655     142.352      69.051
  H      406.164     139.796      68.999
  H      404.742     140.977      73.084
  H      406.478     140.795      72.989
  H      405.437     139.732      72.073

 6  7  8  9  10  11  12  13  14  15  25  28  32  33  34  35 0
 6-311+G(2d,p)
 ****
 36  39  40 0
 6-311+G(2d,p)
 ****
 1  2  3  4  5  16  17  18  19  20  21  22  23  24 0
 3-21G
 ****
 26  27  29  30  31  37  38  41  42  43  44  45  46  47 0
 3-21G
 ****
 48 0
 3-21G
 ****


