%nproc=1
%NoSave
%Mem=1900MB
#P OB98/GEN NMR

erre ene a

0 1
  C     -116.696     104.683     -57.800
  O     -116.079     105.594     -56.913
  H     -115.946     103.964     -58.139
  H     -117.092     105.210     -58.670
  H     -117.501     104.137     -57.298
  P     -116.988     106.678     -56.162
  C     -116.657     108.615     -57.831
  O     -117.566     107.662     -57.290
  C     -117.404     109.897     -58.190
  O     -118.162     109.713     -59.408
  C     -118.414     110.340     -57.136
  O     -117.760     110.923     -56.026
  C     -119.273     111.289     -57.955
  O     -118.636     112.569     -58.101
  C     -119.334     110.556     -59.318
  N     -120.560     109.774     -59.489
  C     -121.568     110.372     -60.238
  O     -121.463     111.490     -60.739
  N     -122.727     109.651     -60.359
  C     -122.997     108.465     -59.738
  O     -124.117     107.966     -59.694
  C     -121.872     107.849     -59.021
  C     -120.727     108.528     -58.917
  O     -116.355     107.358     -54.994
  O     -118.283     105.842     -55.722
  H     -118.213     105.613     -54.775
  H     -118.557     112.942     -57.200
  H     -123.482     110.097     -60.862
  H     -122.026     106.877     -58.570
  H     -119.893     108.106     -58.369
  H     -119.270     111.277     -60.144
  H     -120.248     111.468     -57.498
  H     -119.028     109.487     -56.822
  H     -116.662     110.685     -58.371
  H     -116.208     108.191     -58.736
  H     -115.869     108.815     -57.100
  P     -118.258     110.644     -54.530
  C     -119.374     112.944     -54.350
  O     -119.561     111.538     -54.267
  O     -117.204     110.760     -53.479
  O     -118.848     109.155     -54.583
  H     -118.427     108.620     -53.883
  H     -120.303     113.439     -54.158
  H     -119.028     113.201     -55.330
  H     -118.650     113.251     -53.625

 6  7  8  9  10  11  12  13  14  15  16  27  31  32  33  34  35 0
 6-311+G(2d,p)
 ****
 36  37 0
 6-311+G(2d,p)
 ****
 1  2  3  4  5  17  18  19  20  21  22  23  24  25 0
 3-21G
 ****
 26  28  29  30  38  39  40  41  42  43  44  45 0
 3-21G
 ****


