%nproc=1
%NoSave
%Mem=1900MB
#P OB98/GEN NMR

erre ene a

0 1
  C       31.710     500.505     367.147
  O       30.323     500.676     366.962
  H       31.930     499.434     367.179
  H       32.009     500.952     368.098
  H       32.282     500.956     366.331
  P       29.785     502.084     366.428
  C       28.448     502.280     368.626
  O       29.291     502.943     367.693
  C       29.003     502.361     370.050
  O       30.388     501.948     370.050
  C       28.964     503.780     370.617
  O       27.743     504.129     371.248
  C       30.111     503.750     371.624
  O       29.664     503.290     372.909
  C       31.094     502.748     371.006
  N       35.134     505.843     371.530
  C       34.106     505.602     372.421
  N       34.145     506.303     373.576
  N       33.129     504.767     372.184
  C       33.170     504.216     370.951
  C       34.128     504.392     369.977
  C       35.243     505.262     370.273
  O       36.187     505.496     369.525
  N       33.814     503.700     368.831
  C       32.631     503.175     369.084
  N       32.237     503.395     370.386
  O       28.403     501.706     365.706
  O       30.697     502.807     365.481
  H       30.362     503.501     373.563
  H       28.243     502.319     364.964
  H       35.872     506.473     371.779
  H       32.040     502.601     368.386
  H       31.495     502.063     371.766
  H       30.526     504.750     371.771
  H       34.824     507.021     373.769
  H       29.210     504.513     369.841
  H       33.315     506.301     374.170
  H       28.457     501.657     370.690
  H       28.385     501.241     368.306
  H       27.435     502.697     368.586
  P       26.812     505.279     370.648
  C       27.091     506.615     372.893
  O       27.060     506.617     371.481
  O       25.344     504.829     371.107
  O       26.901     505.475     369.169
  H       24.880     504.375     370.378
  H       27.269     507.609     373.247
  H       27.874     505.970     373.232
  H       26.153     506.265     373.270

 6  7  8  9  10  11  12  13  14  15  26  29  33  34 0
 6-311+G(2d,p)
 ****
 36  38  39  40  41 0
 6-311+G(2d,p)
 ****
 1  2  3  4  5  16  17  18  19  20  21  22  23  24  25 0
 3-21G
 ****
 27  28  30  31  32  35  37  42  43  44  45  46  47 0
 3-21G
 ****
 48  49 0
 3-21G
 ****


