%nproc=1
%NoSave
%Mem=1900MB
#P OB98/GEN NMR

erre ene a

0 1
  C      175.275     180.224      35.906
  O      174.174     179.391      36.299
  P      174.303     177.815      36.014
  C      175.068     176.757      38.293
  O      173.995     177.098      37.416
  C      174.578     175.799      39.374
  O      173.768     176.507      40.348
  C      173.694     174.665      38.856
  O      174.455     173.680      38.184
  C      173.036     174.201      40.153
  O      173.918     173.342      40.884
  C      172.848     175.541      40.909
  N      171.476     176.028      40.881
  C      170.689     175.716      41.988
  O      171.111     175.050      42.944
  N      169.403     176.183      41.969
  C      168.826     176.877      40.953
  O      167.660     177.280      40.988
  C      169.682     177.137      39.772
  C      170.947     176.708      39.795
  O      175.888     177.660      35.826
  O      173.476     177.360      34.856
  H      176.395     178.263      36.405
  H      174.742     173.853      41.029
  H      168.823     175.975      42.764
  H      169.245     177.673      38.940
  H      171.594     176.881      38.937
  H      173.139     175.417      41.965
  H      172.102     173.649      39.971
  H      172.926     175.073      38.177
  H      175.455     175.383      39.895
  H      175.473     177.659      38.762
  H      175.871     176.305      37.698
  P      173.916     173.188      36.753
  C      175.552     174.346      35.070
  O      175.180     173.182      35.771
  O      173.065     174.465      36.289
  O      173.132     171.922      36.811
  H      173.533     175.309      36.449
  H      176.595     174.254      34.746
  H      175.461     175.235      35.703
  H      174.922     174.465      34.183
  H      175.058     181.242      36.152
  H      175.429     180.137      34.851
  H      176.159     179.913      36.422

 3  4  5  6  7  8  9  10  11  12  13  24  28  29  30  31  32 0
 6-311+G(2d,p)
 ****
 33  34 0
 6-311+G(2d,p)
 ****
 1  2  14  15  16  17  18  19  20  21  22  23  25  26  27 0
 3-21G
 ****
 35  36  37  38  39  40  41  42  43  44  45 0
 3-21G
 ****


