%nproc=1
%NoSave
%Mem=1900MB
#P OB98/GEN NMR

erre ene a

0 1
  C       94.277      -5.106     -32.655
  O       93.680      -4.864     -33.930
  P       94.561      -5.026     -35.257
  C       95.569      -6.942     -36.671
  O       94.648      -6.577     -35.650
  C       95.206      -8.318     -37.237
  O       95.355      -9.357     -36.240
  C       93.752      -8.412     -37.680
  O       93.385      -7.670     -38.823
  C       93.524      -9.913     -37.722
  O       93.986     -10.482     -38.946
  C       94.394     -10.393     -36.536
  N       93.600     -10.736     -35.356
  C       93.442     -12.094     -35.099
  O       93.890     -12.976     -35.827
  N       92.710     -12.408     -33.986
  C       92.106     -11.519     -33.145
  O       91.442     -11.857     -32.174
  C       92.290     -10.098     -33.481
  C       93.016      -9.776     -34.554
  O       95.859      -4.293     -35.266
  O       93.588      -4.441     -36.397
  H       94.893     -10.153     -39.096
  H       94.133      -3.911     -37.010
  H       92.591     -13.388     -33.779
  H       91.821      -9.365     -32.840
  H       93.164      -8.734     -34.819
  H       94.970     -11.283     -36.820
  H       92.461     -10.162     -37.635
  H       93.127      -8.022     -36.864
  H       95.890      -8.549     -38.056
  H       96.583      -6.953     -36.268
  H       95.555      -6.174     -37.452
  P       92.073      -6.752     -38.893
  C       91.398      -5.296     -36.857
  O       92.289      -5.486     -37.934
  O       90.751      -7.441     -38.829
  O       92.230      -6.087     -40.349
  H       91.339      -5.951     -40.723
  H       91.683      -4.384     -36.326
  H       91.453      -6.138     -36.162
  H       90.375      -5.181     -37.224
  H       93.549      -4.952     -31.886
  H       95.096      -4.433     -32.511
  H       94.633      -6.114     -32.613

 3  4  5  6  7  8  9  10  11  12  13  23  28  29  30  31  32 0
 6-311+G(2d,p)
 ****
 33  34 0
 6-311+G(2d,p)
 ****
 1  2  14  15  16  17  18  19  20  21  22  24  25  26  27 0
 3-21G
 ****
 35  36  37  38  39  40  41  42  43  44  45 0
 3-21G
 ****


