%nproc=1
%NoSave
%Mem=1900MB
#P OB98/GEN NMR

erre ene a

0 1
  C        9.434    -191.978    -147.588
  O        9.387    -191.456    -146.255
  P        9.306    -189.855    -146.120
  C       11.296    -189.595    -144.468
  O       10.777    -189.311    -145.763
  C       11.913    -188.353    -143.817
  O       13.047    -187.914    -144.605
  C       10.965    -187.154    -143.690
  O       11.241    -186.479    -142.457
  C       11.406    -186.240    -144.818
  O       11.036    -184.883    -144.588
  C       12.910    -186.499    -144.814
  N       17.208    -184.726    -146.809
  C       16.937    -185.147    -145.520
  N       17.956    -185.060    -144.633
  N       15.779    -185.611    -145.134
  C       14.866    -185.673    -146.135
  C       15.014    -185.296    -147.454
  C       16.294    -184.746    -147.853
  O       16.575    -184.308    -148.968
  N       13.861    -185.510    -148.167
  C       13.016    -186.001    -147.284
  N       13.576    -186.113    -146.034
  O        8.473    -189.644    -144.771
  O        8.644    -189.186    -147.279
  H       11.541    -184.575    -143.812
  H        7.688    -189.094    -144.946
  H       18.113    -184.358    -147.045
  H       11.989    -186.271    -147.483
  H       13.402    -185.984    -143.977
  H       10.942    -186.565    -145.757
  H       18.889    -184.774    -144.878
  H        9.904    -187.411    -143.747
  H       17.792    -185.405    -143.692
  H       12.294    -188.640    -142.831
  H       12.057    -190.373    -144.548
  H       10.484    -189.984    -143.846
  P       10.278    -186.832    -141.218
  C        8.418    -185.367    -142.296
  O        8.783    -186.624    -141.757
  O       10.501    -185.597    -140.219
  O       10.569    -188.146    -140.574
  H       10.327    -185.874    -139.298
  H        9.282    -184.719    -142.464
  H        7.735    -184.869    -141.602
  H        7.905    -185.529    -143.248
  H        9.486    -193.046    -147.551
  H       10.298    -191.596    -148.090
  H        8.553    -191.682    -148.118

 3  4  5  6  7  8  9  10  11  12  23  26  30  31  33  0
 6-311+G(2d,p)
 ****
 35  36  37  38 0
 6-311+G(2d,p)
 ****
 1  2  13  14  15  16  17  18  19  20  21  22  24  25  27  28  29 0
 3-21G
 ****
 32  34  39  40  41  42  43  44  45  46  47  48  49 0
 3-21G
 ****


