%nproc=1
%NoSave
%Mem=1900MB
#P OB98/GEN NMR

erre ene a

0 1
  C      963.088     151.577    -100.504
  O      964.321     151.342    -101.155
  H      962.961     150.831     -99.716
  H      962.256     151.483    -101.210
  H      963.079     152.571    -100.048
  P      964.709     152.259    -102.409
  C      964.239     152.164    -104.955
  O      963.886     151.687    -103.661
  C      964.722     151.013    -105.840
  O      965.990     150.517    -105.363
  C      963.790     149.814    -105.875
  O      962.657     150.079    -106.675
  C      964.731     148.739    -106.406
  O      964.894     148.864    -107.827
  C      966.045     149.102    -105.669
  N      966.262     148.317    -104.457
  C      966.678     146.993    -104.652
  O      966.816     146.545    -105.784
  N      966.903     146.216    -103.539
  C      966.774     146.716    -102.353
  N      967.013     145.888    -101.295
  C      966.384     148.120    -102.103
  C      966.135     148.847    -103.189
  O      966.173     152.448    -102.668
  O      963.978     153.656    -102.109
  H      965.140     149.796    -107.992
  H      964.588     154.268    -101.660
  H      966.292     148.495    -101.101
  H      965.841     149.892    -103.104
  H      966.908     148.953    -106.336
  H      964.368     147.735    -106.208
  H      963.493     149.534    -104.851
  H      964.885     151.410    -106.852
  H      967.302     144.938    -101.519
  H      965.034     152.899    -104.819
  H      967.107     146.208    -100.342
  H      963.382     152.663    -105.421
  P      961.222     149.444    -106.341
  C      960.186     147.087    -106.519
  O      961.291     147.927    -106.869
  O      960.051     150.231    -106.831
  O      961.250     149.255    -104.751
  H      961.101     150.122    -104.298
  H      960.341     146.108    -106.922
  H      959.284     147.499    -106.920
  H      960.108     147.026    -105.454

 6  7  8  9  10  11  12  13  14  15  16  26  30  31  32  33  35 0
 6-311+G(2d,p)
 ****
 37  38 0
 6-311+G(2d,p)
 ****
 1  2  3  4  5  17  18  19  20  21  22  23  24  25 0
 3-21G
 ****
 27  28  29  34  36  39  40  41  42  43  44  45  46 0
 3-21G
 ****


