%nproc=1
%NoSave
%Mem=1900MB
#P OB98/GEN NMR

erre ene a

0 1
  C      650.849      34.999    -140.947
  O      651.291      33.705    -140.600
  H      650.560      34.998    -142.001
  H      651.643      35.738    -140.803
  H      649.976      35.273    -140.345
  P      652.013      33.509    -139.174
  C      654.232      34.318    -138.128
  O      653.340      34.412    -139.239
  C      655.610      34.888    -138.478
  O      656.220      34.100    -139.522
  C      655.562      36.305    -139.025
  O      655.204      37.282    -138.067
  C      656.900      36.426    -139.746
  O      657.975      36.813    -138.896
  C      657.124      34.969    -140.241
  N      656.957      34.855    -141.687
  C      658.104      35.050    -142.441
  O      659.203      35.334    -141.955
  N      657.949      34.958    -143.800
  C      656.772      34.744    -144.452
  O      656.690      34.713    -145.678
  C      655.587      34.566    -143.602
  C      655.729      34.626    -142.274
  O      652.264      32.090    -138.760
  O      651.075      34.319    -138.163
  H      657.758      37.703    -138.546
  H      651.256      34.061    -137.227
  H      658.774      35.091    -144.364
  H      654.631      34.395    -144.087
  H      654.868      34.502    -141.620
  H      658.136      34.640    -139.990
  H      656.851      37.156    -140.560
  H      654.789      36.350    -139.801
  H      656.246      34.822    -137.590
  H      654.336      33.255    -137.875
  H      653.806      34.845    -137.266
  P      654.169      38.460    -138.360
  C      653.969      40.405    -140.081
  O      654.812      39.425    -139.477
  O      653.501      39.085    -137.179
  O      653.033      37.681    -139.204
  H      652.172      38.091    -138.983
  H      654.531      40.966    -140.798
  H      653.592      41.065    -139.327
  H      653.151      39.919    -140.571

 6  7  8  9  10  11  12  13  14  15  16  26  31  32  33  34  35 0
 6-311+G(2d,p)
 ****
 36  37 0
 6-311+G(2d,p)
 ****
 1  2  3  4  5  17  18  19  20  21  22  23  24  25 0
 3-21G
 ****
 27  28  29  30  38  39  40  41  42  43  44  45 0
 3-21G
 ****


