%nproc=1
%NoSave
%Mem=1900MB
#P OB98/GEN NMR

erre ene a

0 1
  C      584.269     584.240     474.717
  O      583.409     585.310     474.405
  H      585.292     584.523     474.458
  H      583.995     583.354     474.130
  H      584.229     584.001     475.784
  P      581.871     585.227     474.857
  C      580.505     586.405     472.998
  O      581.141     586.524     474.264
  C      580.729     587.669     472.149
  O      582.127     587.683     471.706
  C      579.851     587.746     470.884
  O      579.630     589.137     470.618
  C      580.781     587.126     469.855
  O      580.326     587.315     468.537
  C      582.100     587.796     470.268
  N      583.296     587.222     469.684
  C      583.997     587.985     468.753
  O      583.673     589.115     468.387
  N      585.124     587.407     468.226
  C      585.608     586.163     468.536
  O      586.645     585.706     468.053
  C      584.827     585.402     469.519
  C      583.728     585.955     470.047
  O      581.629     584.966     476.309
  O      581.275     584.047     473.942
  H      581.204     583.229     474.472
  H      580.171     588.265     468.388
  H      585.647     587.940     467.546
  H      585.182     584.416     469.787
  H      583.140     585.419     470.785
  H      582.053     588.869     470.035
  H      580.832     586.041     470.008
  H      578.890     587.231     471.002
  H      580.592     588.546     472.789
  H      579.433     586.256     473.166
  H      580.915     585.528     472.479
  P      578.247     589.893     470.960
  C      577.650     590.674     468.568
  O      578.040     591.066     469.873
  O      578.151     590.365     472.380
  O      577.084     588.837     470.621
  H      576.302     589.034     471.167
  H      577.548     591.542     467.950
  H      576.714     590.158     468.615
  H      578.394     590.026     468.153

 6  7  8  9  10  11  12  13  14  15  16  27  31  32  33  34  35 0
 6-311+G(2d,p)
 ****
 36  37 0
 6-311+G(2d,p)
 ****
 1  2  3  4  5  17  18  19  20  21  22  23  24  25 0
 3-21G
 ****
 26  28  29  30  38  39  40  41  42  43  44  45 0
 3-21G
 ****


