%nproc=1
%NoSave
%Mem=1900MB
#P OB98/GEN NMR

erre ene a

0 1
  C     -257.985     630.675    -606.283
  O     -256.913     629.760    -606.120
  H     -257.629     631.526    -606.862
  H     -258.338     631.029    -605.315
  H     -258.808     630.198    -606.830
  P     -257.164     628.433    -605.261
  C     -255.344     629.107    -603.553
  O     -255.790     628.136    -604.491
  C     -253.811     629.122    -603.490
  O     -253.300     627.799    -603.261
  C     -253.144     629.626    -604.784
  O     -253.142     631.044    -604.825
  C     -251.748     629.043    -604.607
  O     -251.003     629.832    -603.651
  C     -252.061     627.660    -603.995
  N     -249.935     623.530    -606.063
  C     -249.411     624.452    -605.185
  N     -248.123     624.266    -604.820
  N     -250.078     625.474    -604.710
  C     -251.320     625.570    -605.212
  C     -251.958     624.732    -606.100
  C     -251.233     623.574    -606.571
  O     -251.680     622.722    -607.328
  N     -253.205     625.201    -606.450
  C     -253.341     626.301    -605.728
  N     -252.229     626.582    -604.960
  O     -257.707     627.256    -606.015
  O     -258.148     628.903    -604.084
  H     -250.128     629.406    -603.547
  H     -259.085     628.772    -604.332
  H     -249.375     622.768    -606.407
  H     -254.231     626.938    -605.709
  H     -251.284     627.336    -603.293
  H     -251.180     629.031    -605.531
  H     -247.522     623.592    -605.274
  H     -253.602     629.180    -605.666
  H     -247.695     624.961    -604.227
  H     -253.519     629.754    -602.632
  H     -255.756     628.836    -602.573
  H     -255.710     630.102    -603.833
  P     -253.808     631.851    -606.050
  C     -251.479     632.855    -606.597
  O     -252.841     633.110    -606.293
  O     -255.248     632.179    -605.875
  O     -253.481     630.934    -607.327
  H     -254.152     630.222    -607.473
  H     -250.964     633.783    -606.731
  H     -251.416     632.279    -607.496
  H     -251.030     632.311    -605.793

 6  7  8  9  10  11  12  13  14  15  26  29  33  34 0
 6-311+G(2d,p)
 ****
 36  38  39  40  41 0
 6-311+G(2d,p)
 ****
 1  2  3  4  5  16  17  18  19  20  21  22  23  24  25 0
 3-21G
 ****
 27  28  30  31  32  35  37  42  43  44  45  46  47 0
 3-21G
 ****
 48  49 0
 3-21G
 ****


