%nproc=1
%NoSave
%Mem=1900MB
#P OB98/GEN NMR

erre ene a

0 1
  C      -20.621     431.254    -565.160
  O      -20.045     429.994    -564.884
  H      -21.619     431.099    -565.587
  H      -20.009     431.788    -565.891
  H      -20.714     431.840    -564.246
  P      -18.651     429.990    -564.086
  C      -17.292     429.468    -566.273
  O      -17.530     430.338    -565.186
  C      -16.680     430.233    -567.458
  O      -15.599     431.068    -566.956
  C      -16.098     429.321    -568.545
  O      -16.325     429.942    -569.816
  C      -14.614     429.313    -568.236
  O      -13.834     428.979    -569.381
  C      -14.410     430.741    -567.697
  N      -13.212     430.854    -566.872
  C      -11.979     430.868    -567.544
  O      -11.947     430.780    -568.775
  N      -10.825     430.948    -566.809
  C      -10.881     430.948    -565.512
  N       -9.702     431.002    -564.846
  C      -12.150     430.882    -564.768
  C      -13.267     430.854    -565.491
  O      -18.435     428.435    -563.800
  O      -18.640     430.856    -562.869
  H      -14.106     428.081    -569.695
  H      -18.624     427.870    -564.566
  H      -12.147     430.874    -563.678
  H      -14.239     430.815    -565.027
  H      -14.328     431.459    -568.529
  H      -14.394     428.580    -567.454
  H      -16.544     428.314    -568.538
  H      -17.440     430.899    -567.863
  H       -8.850     431.024    -565.400
  H      -18.227     428.989    -566.589
  H       -9.618     430.950    -563.840
  H      -16.615     428.679    -565.940
  P      -17.591     429.521    -570.695
  C      -16.203     427.897    -572.149
  O      -17.341     428.056    -571.307
  O      -18.089     430.538    -571.658
  O      -18.708     429.224    -569.565
  H      -19.559     429.583    -569.888
  H      -16.150     426.884    -572.489
  H      -15.317     428.136    -571.600
  H      -16.288     428.552    -572.991

 6  7  8  9  10  11  12  13  14  15  16  26  30  31  32  33  35 0
 6-311+G(2d,p)
 ****
 37  38 0
 6-311+G(2d,p)
 ****
 1  2  3  4  5  17  18  19  20  21  22  23  24  25 0
 3-21G
 ****
 27  28  29  34  36  39  40  41  42  43  44  45  46 0
 3-21G
 ****


