%nproc=1
%NoSave
%Mem=1900MB
#P OB98/GEN NMR

erre ene a

0 1
  C     -103.285    -155.242    -148.901
  O     -103.426    -155.843    -147.624
  P     -102.651    -155.191    -146.384
  C     -100.919    -157.123    -146.221
  O     -101.941    -156.381    -145.575
  C      -99.722    -157.310    -145.286
  O      -99.127    -156.007    -144.996
  C     -100.077    -157.959    -143.940
  O      -98.954    -158.761    -143.538
  C     -100.200    -156.760    -143.020
  O     -100.085    -157.095    -141.645
  C      -99.063    -155.885    -143.561
  N      -99.162    -154.493    -143.132
  C      -98.552    -154.149    -141.929
  O      -97.943    -154.942    -141.212
  N      -98.718    -152.848    -141.529
  C      -99.489    -151.910    -142.147
  O      -99.690    -150.795    -141.673
  C     -100.109    -152.327    -143.413
  C      -99.920    -153.579    -143.841
  O     -103.837    -154.729    -145.415
  O     -101.747    -154.061    -146.739
  H     -100.741    -157.790    -141.458
  H     -104.000    -153.771    -145.509
  H      -98.273    -152.580    -140.665
  H     -100.710    -151.598    -143.940
  H     -100.382    -153.920    -144.760
  H      -98.092    -156.293    -143.249
  H     -101.175    -156.284    -143.169
  H     -100.987    -158.565    -143.972
  H      -98.959    -157.905    -145.806
  H     -100.596    -156.586    -147.114
  H     -101.314    -158.095    -146.540
  P      -99.249    -160.249    -143.005
  C      -97.357    -159.826    -141.245
  O      -97.954    -160.704    -142.179
  O      -99.146    -161.080    -144.372
  O     -100.565    -160.391    -142.315
  H      -98.393    -160.805    -144.922
  H      -98.105    -159.200    -140.748
  H      -96.640    -159.184    -141.761
  H      -96.832    -160.415    -140.492
  H     -103.859    -155.790    -149.618
  H     -102.254    -155.251    -149.188
  H     -103.635    -154.232    -148.860

 3  4  5  6  7  8  9  10  11  12  13  23  28  29  30  31  32 0
 6-311+G(2d,p)
 ****
 33  34 0
 6-311+G(2d,p)
 ****
 1  2  14  15  16  17  18  19  20  21  22  24  25  26 0
 3-21G
 ****
 27  35  36  37  38  39  40  41  42  43  44  45 0
 3-21G
 ****


