%nproc=1
%NoSave
%Mem=1900MB
#P OB98/GEN NMR

erre ene a

0 1
  C       30.608    -265.852     244.938
  O       31.996    -266.142     244.952
  H       30.148    -266.390     244.103
  H       30.453    -264.778     244.793
  H       30.145    -266.179     245.871
  P       32.859    -265.480     246.130
  C       34.002    -267.530     247.258
  O       34.127    -266.442     246.350
  C       35.383    -267.992     247.709
  O       36.127    -268.465     246.558
  C       36.243    -266.895     248.331
  O       35.892    -266.643     249.677
  C       37.637    -267.487     248.165
  O       37.950    -268.401     249.226
  C       37.532    -268.235     246.835
  N       41.954    -266.637     244.866
  C       41.669    -267.413     245.943
  N       40.457    -267.806     246.382
  C       39.487    -267.326     245.593
  C       39.622    -266.523     244.476
  C       40.931    -266.169     244.109
  N       41.224    -265.342     243.045
  N       38.382    -266.192     243.958
  C       37.510    -266.797     244.744
  N       38.130    -267.499     245.738
  O       31.957    -265.742     247.425
  O       33.181    -264.032     245.951
  H       38.881    -268.680     249.085
  H       31.401    -264.958     247.603
  H       42.529    -267.748     246.515
  H       36.433    -266.754     244.631
  H       38.019    -269.223     246.873
  H       38.398    -266.701     248.182
  H       36.170    -265.980     247.731
  H       35.260    -268.832     248.404
  H       33.485    -268.356     246.758
  H       33.402    -267.202     248.124
  H       42.184    -265.119     242.854
  H       40.456    -264.908     242.535
  P       36.025    -265.148     250.239
  C       33.542    -264.982     251.009
  O       34.916    -264.954     251.380
  O       35.481    -264.249     249.030
  O       37.403    -264.758     250.645
  H       36.226    -263.873     248.520
  H       32.935    -264.839     251.878
  H       33.312    -265.928     250.565
  H       33.347    -264.200     250.305

 6  7  8  9  10  11  12  13  14  15  25  28  32  33  34  35 0
 6-311+G(2d,p)
 ****
 36  37  40 0
 6-311+G(2d,p)
 ****
 1  2  3  4  5  16  17  18  19  20  21  22  23  24 0
 3-21G
 ****
 26  27  29  30  31  38  39 41  42  43  44  45  46  47  48 0
 3-21G
 ****


