%nproc=1
%NoSave
%Mem=1900MB
#P OB98/GEN NMR

erre ene a

0 1
  C      -55.111      72.196    -392.909
  O      -54.998      73.299    -392.030
  H      -54.679      72.469    -393.877
  H      -56.165      71.945    -393.053
  H      -54.570      71.330    -392.512
  P      -55.384      73.042    -390.495
  C      -57.819      73.831    -390.937
  O      -56.972      72.797    -390.459
  C      -58.621      74.436    -389.790
  O      -59.285      73.394    -389.033
  C      -57.780      75.219    -388.780
  O      -57.525      76.549    -389.223
  C      -58.708      75.208    -387.576
  O      -59.760      76.183    -387.762
  C      -59.280      73.786    -387.632
  N      -58.226      72.059    -382.978
  C      -59.047      73.106    -383.377
  N      -59.674      73.784    -382.394
  N      -59.244      73.447    -384.621
  C      -58.543      72.681    -385.503
  C      -57.698      71.625    -385.230
  C      -57.503      71.247    -383.849
  O      -56.802      70.326    -383.444
  N      -57.182      71.087    -386.382
  C      -57.695      71.826    -387.345
  N      -58.524      72.814    -386.864
  O      -55.222      74.491    -389.823
  O      -54.557      72.021    -389.788
  H      -59.357      77.059    -387.638
  H      -54.880      74.380    -388.914
  H      -58.105      71.846    -382.005
  H      -57.501      71.694    -388.402
  H      -60.319      73.743    -387.277
  H      -58.197      75.471    -386.649
  H      -59.529      73.606    -381.411
  H      -56.854      74.692    -388.535
  H      -60.307      74.532    -382.660
  H      -59.404      75.080    -390.220
  H      -58.509      73.417    -391.681
  H      -57.205      74.605    -391.418
  P      -56.027      77.109    -389.071
  C      -56.632      77.731    -386.620
  O      -55.714      77.078    -387.493
  O      -56.192      78.676    -389.383
  O      -55.017      76.459    -389.956
  H      -55.341      79.044    -389.682
  H      -56.297      77.629    -385.609
  H      -57.600      77.286    -386.722
  H      -56.689      78.769    -386.874

 6  7  8  9  10  11  12  13  14  15  26  29  33  34 0
 6-311+G(2d,p)
 ****
 36  38  39  40  41 0
 6-311+G(2d,p)
 ****
 1  2  3  4  5  16  17  18  19  20  21  22  23  24  25 0
 3-21G
 ****
 27  28  30  31  32  35  37  42  43  44  45  46  47 0
 3-21G
 ****
 48  49 0
 3-21G
 ****


