%nproc=1
%NoSave
%Mem=1900MB
#P OB98/GEN NMR

erre ene a

0 1
  C      487.177     -17.494    -102.445
  O      486.629     -18.093    -101.285
  H      486.412     -17.471    -103.225
  H      488.030     -18.076    -102.803
  H      487.490     -16.466    -102.228
  P      487.611     -18.242    -100.026
  C      485.958     -20.002     -99.073
  O      487.308     -19.686     -99.393
  C      485.778     -21.515     -98.969
  O      485.657     -22.104    -100.282
  C      486.921     -22.242     -98.268
  O      486.776     -22.182     -96.860
  C      486.756     -23.651     -98.816
  O      485.722     -24.374     -98.116
  C      486.346     -23.386    -100.272
  N      489.639     -26.236    -102.832
  C      488.591     -26.601    -102.013
  N      488.429     -27.926    -101.803
  N      487.779     -25.747    -101.441
  C      488.087     -24.459    -101.716
  C      489.088     -23.968    -102.524
  C      489.955     -24.925    -103.174
  O      490.864     -24.667    -103.960
  N      489.067     -22.598    -102.568
  C      488.079     -22.259    -101.759
  N      487.462     -23.354    -101.204
  O      486.988     -17.234     -98.945
  O      489.047     -17.940    -100.295
  H      485.861     -24.284     -97.157
  H      487.707     -16.883     -98.387
  H      490.217     -26.937    -103.254
  H      487.773     -21.244    -101.543
  H      485.643     -24.135    -100.648
  H      487.672     -24.235     -98.709
  H      489.187     -28.581    -101.931
  H      487.889     -21.836     -98.582
  H      487.674     -28.204    -101.188
  H      484.827     -21.696     -98.445
  H      485.305     -19.615     -99.860
  H      485.694     -19.524     -98.121
  P      487.901     -22.895     -95.963
  C      486.501     -22.388     -93.829
  O      487.172     -23.366     -94.611
  O      488.818     -21.677     -95.479
  O      488.688     -23.947     -96.671
  H      489.675     -22.010     -95.161
  H      486.070     -22.854     -92.968
  H      485.728     -21.933     -94.413
  H      487.200     -21.640     -93.517

 6  7  8  9  10  11  12  13  14  15  26  29  33  34 0
 6-311+G(2d,p)
 ****
 36  38  39  40  41 0
 6-311+G(2d,p)
 ****
 1  2  3  4  5  16  17  18  19  20  21  22  23  24  25 0
 3-21G
 ****
 27  28  30  31  32  35  37  42  43  44  45  46  47 0
 3-21G
 ****
 48  49 0
 3-21G
 ****


