%nproc=1
%NoSave
%Mem=1900MB
#P OB98/GEN NMR

erre ene a

0 1
  C      261.697     134.018      43.780
  O      262.213     134.476      42.547
  H      260.615     133.887      43.710
  H      262.155     133.054      44.018
  H      261.935     134.728      44.577
  P      261.636     135.868      41.995
  C      259.942     134.587      40.508
  O      260.132     135.589      41.498
  C      258.538     134.700      39.917
  O      257.587     134.230      40.905
  C      258.131     136.124      39.503
  O      257.784     136.156      38.116
  C      256.879     136.413      40.318
  O      255.874     137.107      39.581
  C      256.408     135.026      40.745
  N      251.708     134.988      42.710
  C      252.185     134.542      41.527
  N      253.464     134.485      41.107
  C      254.298     134.926      42.064
  C      253.963     135.388      43.325
  C      252.593     135.429      43.633
  N      252.103     135.934      44.817
  N      255.094     135.764      44.026
  C      256.090     135.573      43.185
  N      255.656     135.086      41.981
  O      262.448     136.086      40.630
  O      261.790     137.029      42.919
  H      255.619     136.527      38.841
  H      262.795     136.996      40.598
  H      251.438     134.192      40.820
  H      257.129     135.810      43.377
  H      255.779     134.552      39.982
  H      257.154     137.023      41.186
  H      258.911     136.865      39.707
  H      258.472     134.022      39.057
  H      260.057     133.597      40.962
  H      251.105     136.032      44.906
  H      252.749     136.363      45.463
  H      260.703     134.705      39.731
  P      259.002     136.267      37.070
  C      258.558     138.799      36.653
  O      259.483     137.798      37.058
  O      258.275     136.099      35.654
  O      260.072     135.249      37.277
  H      258.899     135.734      34.999
  H      259.028     139.759      36.700
  H      257.710     138.785      37.305
  H      258.240     138.606      35.650

 6  7  8  9  10  11  12  13  14  15  25  28  32  33  34  35 0
 6-311+G(2d,p)
 ****
 36  39  40 0
 6-311+G(2d,p)
 ****
 1  2  3  4  5  16  17  18  19  20  21  22  23  24 0
 3-21G
 ****
 26  27  29  30  31  37  38  41  42  43  44  45  46  47  48 0
 3-21G
 ****


