%nproc=1
%NoSave
%Mem=1900MB
#P OB98/GEN NMR

erre ene a

0 1
  C      682.398     779.596     490.893
  O      683.086     778.476     491.407
  H      683.120     780.256     490.404
  H      681.925     780.144     491.716
  H      681.640     779.301     490.165
  P      682.251     777.157     491.770
  C      682.607     775.946     489.520
  O      681.672     776.551     490.393
  C      682.492     774.417     489.517
  O      681.165     774.037     489.100
  C      683.479     773.751     488.559
  O      684.754     773.490     489.111
  C      682.754     772.448     488.224
  O      683.067     771.407     489.172
  C      681.269     772.830     488.327
  N      678.455     770.792     484.568
  C      679.007     770.166     485.665
  N      678.823     768.833     485.751
  N      679.697     770.802     486.583
  C      679.883     772.117     486.320
  C      679.390     772.846     485.246
  C      678.574     772.149     484.286
  O      678.042     772.659     483.299
  N      679.829     774.143     485.285
  C      680.638     774.184     486.319
  N      680.651     773.004     487.020
  O      680.929     777.733     492.476
  O      682.945     776.176     492.660
  H      684.003     771.161     489.045
  H      680.609     777.091     493.136
  H      677.908     770.269     483.915
  H      681.212     775.049     486.643
  H      680.687     772.062     488.858
  H      683.052     772.072     487.242
  H      678.375     768.286     485.034
  H      683.575     774.334     487.639
  H      679.383     768.310     486.434
  H      682.622     774.056     490.546
  H      683.603     776.244     489.862
  H      682.488     776.335     488.497
  P      686.084     773.700     488.259
  C      686.935     775.815     489.575
  O      686.505     775.237     488.357
  O      685.566     773.567     486.750
  O      687.210     772.763     488.556
  H      685.752     772.668     486.407
  H      687.167     776.848     489.418
  H      687.807     775.303     489.924
  H      686.156     775.731     490.304

 6  7  8  9  10  11  12  13  14  15  26  29  33  34 0
 6-311+G(2d,p)
 ****
 36  38  39  40  41 0
 6-311+G(2d,p)
 ****
 1  2  3  4  5  16  17  18  19  20  21  22  23  24  25 0
 3-21G
 ****
 27  28  30  31  32  35  37  42  43  44  45  46  47 0
 3-21G
 ****
 48  49 0
 3-21G
 ****


