%nproc=1
%NoSave
%Mem=1900MB
#P OB98/GEN NMR

erre ene a

0 1
  C       37.232      56.643     -92.823
  O       38.364      57.359     -93.261
  H       37.567      55.742     -92.303
  H       36.629      56.346     -93.686
  H       36.622      57.237     -92.138
  P       38.200      58.904     -93.636
  C       39.137      61.168     -92.825
  O       39.208      59.752     -92.717
  C       39.892      61.860     -91.691
  O       39.240      61.582     -90.433
  C       41.335      61.367     -91.559
  O       42.267      62.051     -92.380
  C       41.620      61.618     -90.081
  O       42.121      62.948     -89.864
  C       40.248      61.447     -89.421
  N       41.946      58.312     -85.757
  C       42.524      59.471     -86.244
  N       43.717      59.807     -85.707
  N       41.981      60.208     -87.176
  C       40.840      59.691     -87.683
  C       40.185      58.544     -87.297
  C       40.753      57.772     -86.213
  O       40.273      56.750     -85.736
  N       39.071      58.314     -88.070
  C       39.107      59.273     -88.973
  N       40.114      60.177     -88.731
  O       36.768      59.287     -93.020
  O       38.246      59.221     -95.100
  H       42.285      63.056     -88.907
  H       36.353      59.978     -93.566
  H       42.397      57.802     -85.019
  H       38.405      59.386     -89.792
  H       40.061      62.233     -88.679
  H       42.384      60.931     -89.710
  H       44.219      59.232     -85.051
  H       41.394      60.290     -91.739
  H       44.261      60.540     -86.166
  H       39.851      62.947     -91.839
  H       38.079      61.431     -92.785
  H       39.520      61.495     -93.796
  P       43.558      61.304     -92.953
  C       45.523      61.959     -94.566
  O       44.248      62.249     -94.037
  O       42.933      60.125     -93.834
  O       44.511      60.789     -91.925
  H       42.934      59.286     -93.338
  H       45.797      62.715     -95.272
  H       45.499      61.007     -95.054
  H       46.241      61.935     -93.773

 6  7  8  9  10  11  12  13  14  15  26  29  33  34 0
 6-311+G(2d,p)
 ****
 36  38  39  40  41 0
 6-311+G(2d,p)
 ****
 1  2  3  4  5  16  17  18  19  20  21  22  23  24  25 0
 3-21G
 ****
 27  28  30  31  32  35  37  42  43  44  45  46  47 0
 3-21G
 ****
 48  49 0
 3-21G
 ****


