%nproc=1
%NoSave
%Mem=1900MB
#P OB98/GEN NMR

erre ene a

0 1
  C     -926.333      61.698      18.462
  O     -925.194      61.354      19.250
  P     -924.079      60.417      18.591
  C     -923.596      59.319      20.892
  O     -923.043      59.962      19.740
  C     -922.627      59.398      22.080
  O     -921.325      58.893      21.659
  C     -922.378      60.815      22.610
  O     -923.235      61.317      23.628
  C     -920.996      60.657      23.252
  O     -921.138      60.103      24.584
  C     -920.297      59.639      22.355
  N     -915.584      61.522      21.649
  C     -916.188      60.967      22.729
  N     -917.444      60.487      22.832
  C     -918.102      60.619      21.667
  C     -917.619      61.162      20.484
  C     -916.301      61.641      20.503
  N     -915.686      62.214      19.407
  N     -918.581      61.125      19.506
  C     -919.645      60.591      20.090
  N     -919.391      60.256      21.398
  O     -923.451      60.907      17.333
  O     -924.888      59.044      18.323
  H     -921.757      60.687      25.058
  H     -924.575      58.659      17.486
  H     -915.579      60.898      23.622
  H     -920.595      60.430      19.611
  H     -919.705      58.906      22.923
  H     -920.466      61.605      23.366
  H     -922.312      61.543      21.789
  H     -922.989      58.755      22.888
  H     -923.803      58.267      20.653
  H     -914.754      62.561      19.520
  H     -916.219      62.349      18.560
  H     -924.558      59.791      21.103
  P     -924.543      62.166      23.268
  C     -924.487      63.961      25.187
  O     -925.055      62.783      24.665
  O     -925.583      61.437      22.492
  O     -923.931      63.450      22.523
  H     -923.414      64.042      23.103
  H     -925.105      64.317      26.008
  H     -924.437      64.732      24.414
  H     -923.483      63.749      25.564
  H     -926.986      62.324      19.033
  H     -926.852      60.807      18.178
  H     -926.015      62.221      17.584

 3  4  5  6  7  8  9  10  11  12  22  25  29  30  31  32 0
 6-311+G(2d,p)
 ****
 33  36  37 0
 6-311+G(2d,p)
 ****
 1  2  13  14  15  16  17  18  19  20  21  23  24  26 0
 3-21G
 ****
 27  28  34  35  38  39  40  41  42  43  44  45  46  47  48 0
 3-21G
 ****


