%nproc=1
%NoSave
%Mem=1900MB
#P OB98/GEN NMR

erre ene a

0 1
  C     -994.224     260.521    -897.300
  O     -993.392     261.523    -897.850
  H     -993.627     259.870    -896.660
  H     -994.656     259.917    -898.100
  H     -995.027     260.963    -896.710
  P     -994.092     262.684    -898.700
  C     -993.170     264.709    -897.360
  O     -994.308     263.924    -897.700
  C     -992.645     264.300    -895.980
  O     -992.206     262.904    -896.020
  C     -991.441     265.145    -895.500
  O     -991.568     265.368    -894.090
  C     -990.247     264.243    -895.770
  O     -989.134     264.537    -894.930
  C     -990.862     262.846    -895.560
  N     -990.098     261.813    -896.260
  C     -989.045     261.220    -895.550
  O     -988.801     261.571    -894.390
  N     -988.267     260.280    -896.180
  C     -988.465     260.040    -897.430
  N     -987.629     259.122    -898.020
  C     -989.508     260.688    -898.260
  C     -990.279     261.551    -897.610
  O     -995.578     262.134    -898.930
  O     -993.421     263.037    -900.000
  H     -988.415     263.906    -895.170
  H     -995.953     262.450    -899.770
  H     -989.611     260.465    -899.310
  H     -991.079     262.092    -898.120
  H     -990.897     262.598    -894.490
  H     -989.928     264.364    -896.800
  H     -991.372     266.103    -896.020
  H     -993.466     264.359    -895.260
  H     -986.920     258.695    -897.440
  H     -993.465     265.745    -897.330
  H     -987.672     258.883    -899.010
  H     -992.391     264.569    -898.120
  P     -992.125     266.806    -893.640
  C     -993.542     266.530    -891.460
  O     -993.540     266.575    -892.890
  O     -992.540     267.501    -895.020
  O     -991.108     267.621    -892.890
  H     -991.900     268.206    -895.230
  H     -994.541     266.373    -891.110
  H     -993.170     267.456    -891.073
  H     -992.917     265.728    -891.128

 6  7  8  9  10  11  12  13  14  15  16  26  30  31  32  33  35 0
 6-311+G(2d,p)
 ****
 37  38 0
 6-311+G(2d,p)
 ****
 1  2  3  4  5  17  18  19  20  21  22  23  24  25 0
 3-21G
 ****
 27  28  29  34  36  39  40  41  42  43  44  45  46 0
 3-21G
 ****


