%nproc=1
%NoSave
%Mem=1900MB
#P OB98/GEN NMR

erre ene a

0 1
  C      171.938     229.157    -359.040
  O      173.070     229.018    -358.203
  H      171.246     229.865    -358.582
  H      171.435     228.192    -359.152
  H      172.234     229.539    -360.022
  P      174.294     228.156    -358.781
  C      175.609     230.214    -359.748
  O      174.894     229.015    -359.994
  C      177.104     230.018    -360.024
  O      177.272     229.634    -361.413
  C      177.943     231.273    -359.779
  O      179.216     230.869    -359.262
  C      178.128     231.847    -361.173
  O      179.277     232.688    -361.261
  C      178.192     230.564    -362.019
  N      177.865     230.808    -363.422
  C      178.698     231.686    -364.118
  O      179.645     232.231    -363.547
  N      178.419     231.971    -365.431
  C      177.357     231.469    -365.988
  N      177.124     231.804    -367.282
  C      176.425     230.569    -365.278
  C      176.746     230.275    -364.017
  O      173.531     226.951    -359.506
  O      175.291     227.728    -357.751
  H      179.558     232.733    -362.198
  H      172.771     227.238    -360.036
  H      175.553     230.182    -365.779
  H      176.121     229.617    -363.426
  H      179.196     230.120    -361.973
  H      177.254     232.442    -361.454
  H      177.471     231.974    -359.091
  H      177.461     229.178    -359.416
  H      177.775     232.442    -367.722
  H      175.472     230.533    -358.710
  H      176.304     231.520    -367.798
  H      175.202     230.991    -360.401
  P      179.957     231.794    -358.181
  C      179.094     230.529    -356.096
  O      179.134     231.762    -356.807
  O      180.358     233.150    -358.656
  O      181.261     230.927    -357.818
  H      182.016     231.543    -357.742
  H      178.515     230.650    -355.204
  H      180.089     230.234    -355.837
  H      178.648     229.776    -356.712

 6  7  8  9  10  11  12  13  14  15  16  26  30  31  32  33  35 0
 6-311+G(2d,p)
 ****
 37  38 0
 6-311+G(2d,p)
 ****
 1  2  3  4  5  17  18  19  20  21  22  23  24  25 0
 3-21G
 ****
 27  28  29  34  36  39  40  41  42  43  44  45  46 0
 3-21G
 ****


