%nproc=1
%NoSave
%Mem=1900MB
#P OB98/GEN NMR

erre ene a

0 1
  C     -691.905    -179.068      12.577
  O     -691.787    -179.145      11.167
  H     -690.939    -178.788      12.994
  H     -692.198    -180.040      12.983
  H     -692.645    -178.305      12.852
  P     -693.142    -179.366      10.338
  C     -693.338    -176.876       9.533
  O     -693.866    -177.940      10.307
  C     -692.915    -175.706      10.426
  O     -691.725    -176.095      11.159
  C     -692.598    -174.422       9.661
  O     -693.015    -173.303      10.457
  C     -691.079    -174.437       9.570
  O     -690.550    -173.125       9.367
  C     -690.696    -175.100      10.899
  N     -689.364    -175.690      10.861
  C     -688.294    -174.803      10.754
  O     -688.494    -173.589      10.681
  N     -687.017    -175.302      10.687
  C     -686.831    -176.595      10.661
  N     -685.546    -177.040      10.574
  C     -687.948    -177.571      10.730
  C     -689.168    -177.053      10.834
  O     -694.023    -180.219      11.371
  O     -692.951    -180.017       9.008
  H     -690.676    -172.610      10.198
  H     -693.985    -179.877      12.283
  H     -687.737    -178.632      10.693
  H     -690.039    -177.696      10.904
  H     -690.740    -174.374      11.720
  H     -690.764    -175.057       8.723
  H     -693.085    -174.376       8.688
  H     -693.701    -175.535      11.176
  H     -684.818    -176.325      10.508
  H     -694.085    -176.521       8.809
  H     -685.295    -178.003      10.490
  H     -692.475    -177.258       8.974
  P     -694.369    -172.546      10.089
  C     -695.034    -172.055      12.554
  O     -695.404    -172.666      11.322
  O     -694.949    -172.844       8.753
  O     -693.940    -170.995      10.179
  H     -694.361    -170.527       9.434
  H     -695.807    -172.212      13.277
  H     -694.895    -171.005      12.404
  H     -694.122    -172.489      12.908

 6  7  8  9  10  11  12  13  14  15  16  26  30  31  32  33  35 0
 6-311+G(2d,p)
 ****
 37  38 0
 6-311+G(2d,p)
 ****
 1  2  3  4  5  17  18  19  20  21  22  23  24  25 0
 3-21G
 ****
 27  28  29  34  36  39  40  41  42  43  44  45  46 0
 3-21G
 ****


