%nproc=1
%NoSave
%Mem=1900MB
#P OB98/GEN NMR

erre ene a

0 1
  C      -40.809      20.062      28.534
  O      -40.010      18.932      28.256
  P      -40.596      17.565      27.672
  C      -39.742      15.702      26.075
  O      -39.609      17.050      26.512
  C      -38.436      15.124      25.511
  O      -37.893      16.030      24.531
  C      -37.388      15.009      26.622
  O      -37.382      13.888      27.483
  C      -36.057      15.303      25.942
  O      -35.342      14.115      25.600
  C      -36.464      16.067      24.680
  N      -32.515      19.244      24.596
  C      -32.552      17.894      24.306
  N      -31.353      17.288      24.162
  N      -33.659      17.207      24.194
  C      -34.772      17.931      24.460
  C      -34.862      19.274      24.743
  C      -33.635      20.029      24.823
  O      -33.554      21.208      25.160
  N      -36.149      19.649      25.029
  C      -36.835      18.527      24.959
  N      -36.036      17.451      24.656
  O      -42.070      17.513      27.433
  O      -40.266      16.541      28.876
  H      -34.478      14.380      25.236
  H      -40.988      15.884      28.906
  H      -31.627      19.704      24.748
  H      -37.897      18.434      25.151
  H      -36.045      15.588      23.787
  H      -35.401      15.876      26.608
  H      -30.484      17.752      24.385
  H      -37.551      15.858      27.298
  H      -31.335      16.276      24.119
  H      -38.619      14.186      24.980
  H      -40.533      15.680      25.318
  H      -40.079      15.081      26.909
  P      -36.948      13.873      29.022
  C      -37.682      12.718      31.182
  O      -37.773      12.723      29.769
  O      -37.582      15.215      29.624
  O      -35.473      13.844      29.259
  H      -37.098      15.474      30.431
  H      -38.013      11.747      31.557
  H      -38.330      13.498      31.593
  H      -36.652      12.893      31.509
  H      -40.193      20.850      28.915
  H      -41.550      19.805      29.262
  H      -41.290      20.388      27.636

 3  4  5  6  7  8  9  10  11  12  23  26  30  31 0
 6-311+G(2d,p)
 ****
 33  35  36  37  38 0
 6-311+G(2d,p)
 ****
 1  2  13  14  15  16  17  18  19  20  21  22  24  25 0
 3-21G
 ****
 27  28  29  32  34  39  40  41  42  43  44  45  46  47  48  49 0
 3-21G
 ****


