%nproc=1
%NoSave
%Mem=1900MB
#P OB98/GEN NMR

erre ene a

0 1
  C     -896.240    1182.228     584.143
  O     -896.150    1181.706     582.835
  H     -895.360    1182.849     584.334
  H     -896.270    1181.427     584.873
  H     -897.130    1182.859     584.240
  P     -897.310    1180.673     582.396
  C     -895.590    1178.804     581.814
  O     -896.580    1179.703     581.343
  C     -894.920    1178.086     580.629
  O     -895.890    1177.268     579.922
  C     -894.350    1179.028     579.585
  O     -893.100    1179.591     579.954
  C     -894.190    1178.055     578.412
  O     -893.050    1177.182     578.673
  C     -895.520    1177.273     578.523
  N     -896.610    1177.867     577.717
  C     -896.700    1177.406     576.383
  O     -895.920    1176.555     575.948
  N     -897.670    1177.944     575.570
  C     -898.480    1178.849     576.056
  N     -899.410    1179.352     575.201
  C     -898.420    1179.355     577.443
  C     -897.470    1178.813     578.208
  O     -898.260    1181.557     581.471
  O     -898.010    1179.969     583.519
  H     -892.300    1177.763     578.823
  H     -898.930    1180.984     581.029
  H     -899.100    1180.104     577.780
  H     -897.350    1179.136     579.236
  H     -895.380    1176.226     578.214
  H     -894.030    1178.533     577.450
  H     -895.060    1179.789     579.289
  H     -894.160    1177.416     581.044
  H     -899.400    1179.023     574.244
  H     -896.060    1178.071     582.475
  H     -900.000    1180.151     575.415
  H     -894.830    1179.349     582.376
  P     -893.030    1181.191     580.095
  C     -891.790    1181.654     577.854
  O     -891.750    1181.675     579.260
  O     -892.590    1181.387     581.625
  O     -894.310    1181.927     579.772
  H     -892.990    1182.200     582.005
  H     -890.858    1182.007     577.465
  H     -892.582    1182.286     577.510
  H     -891.960    1180.653     577.517

 6  7  8  9  10  11  12  13  14  15  16  26  30  31  32  33  35 0
 6-311+G(2d,p)
 ****
 37  38 0
 6-311+G(2d,p)
 ****
 1  2  3  4  5  17  18  19  20  21  22  23  24  25 0
 3-21G
 ****
 27  28  29  34  36  39  40  41  42  43  44  45  46 0
 3-21G
 ****


