%nproc=1
%NoSave
%Mem=1900MB
#P OB98/GEN NMR

erre ene a

0 1
  C     1259.444    -547.865      11.761
  O     1259.158    -547.139      10.566
  P     1260.273    -546.846       9.425
  C     1258.543    -546.837       7.461
  O     1259.706    -547.405       8.049
  C     1257.236    -547.607       7.843
  O     1256.919    -547.338       9.242
  C     1256.059    -547.081       7.040
  O     1255.818    -547.591       5.732
  C     1254.849    -547.190       7.994
  O     1254.129    -548.418       7.802
  C     1255.520    -547.162       9.392
  N     1251.970    -543.742      10.787
  C     1251.861    -544.794       9.946
  N     1250.645    -544.997       9.376
  N     1252.834    -545.649       9.688
  C     1254.042    -545.299      10.267
  C     1254.271    -544.262      11.109
  C     1253.137    -543.363      11.451
  O     1253.214    -542.432      12.213
  N     1255.585    -544.216      11.488
  C     1256.135    -545.231      10.884
  N     1255.192    -545.938      10.078
  O     1261.688    -547.189       9.791
  O     1260.174    -545.230       9.252
  H     1253.541    -548.533       8.555
  H     1261.101    -544.942       9.031
  H     1251.185    -543.139      10.986
  H     1257.185    -545.504      10.946
  H     1255.150    -547.974      10.009
  H     1254.130    -546.382       7.811
  H     1249.907    -544.314       9.445
  H     1256.212    -545.975       6.924
  H     1250.635    -545.648       8.593
  H     1257.377    -548.692       7.781
  H     1258.669    -546.865       6.378
  H     1258.453    -545.788       7.732
  P     1256.534    -547.076       4.385
  C     1257.338    -549.331       3.409
  O     1257.716    -548.140       4.054
  O     1257.340    -545.766       4.831
  O     1255.597    -546.793       3.238
  H     1257.596    -545.246       4.044
  H     1258.117    -550.061       3.515
  H     1257.172    -549.133       2.329
  H     1256.383    -549.748       3.853
  H     1258.559    -547.932      12.358
  H     1260.209    -547.358      12.312
  H     1259.779    -548.849      11.509

 3  4  5  6  7  8  9  10  11  12  23  26  30  31 0
 6-311+G(2d,p)
 ****
 33  35  36  37  38 0
 6-311+G(2d,p)
 ****
 1  2  13  14  15  16  17  18  19  20  21  22  24  25 0
 3-21G
 ****
 27  28  29  32  34  39  40  41  42  43  44  45  46  47  48  49 0
 3-21G
 ****


