%nproc=1
%NoSave
%Mem=1900MB
#P OB98/GEN NMR

erre ene a

0 1
  C     -393.046     211.997     320.325
  O     -393.010     212.824     319.182
  H     -392.761     210.980     320.036
  H     -394.052     211.968     320.752
  H     -392.333     212.363     321.074
  P     -393.543     214.330     319.294
  C     -396.027     214.041     318.692
  O     -394.749     214.472     318.244
  C     -396.624     213.008     317.729
  O     -396.613     213.568     316.386
  C     -395.848     211.684     317.691
  O     -396.786     210.612     317.547
  C     -395.003     211.827     316.442
  O     -394.618     210.566     315.919
  C     -395.907     212.657     315.525
  N     -395.137     213.358     314.505
  C     -394.487     212.559     313.550
  O     -394.597     211.328     313.594
  N     -393.675     213.151     312.621
  C     -393.479     214.436     312.666
  N     -392.633     214.963     311.737
  C     -394.115     215.318     313.665
  C     -394.924     214.721     314.539
  O     -392.504     215.400     319.201
  O     -394.291     214.359     320.716
  H     -394.066     210.710     315.109
  H     -393.666     214.628     321.419
  H     -393.913     216.380     313.665
  H     -395.430     215.283     315.323
  H     -396.653     212.018     315.028
  H     -394.087     212.382     316.675
  H     -395.235     211.520     318.587
  H     -397.672     212.843     317.996
  H     -392.191     214.310     311.083
  H     -396.686     214.924     318.740
  H     -392.364     215.935     311.694
  H     -395.949     213.609     319.695
  P     -397.343     209.831     318.836
  C     -396.102     207.740     318.058
  O     -397.343     208.250     318.529
  O     -398.639     210.356     319.375
  O     -396.167     210.000     319.921
  H     -396.556     210.004     320.812
  H     -396.193     206.689     317.881
  H     -395.343     207.914     318.792
  H     -395.836     208.234     317.147

 6  7  8  9  10  11  12  13  14  15  16  26  30  31  32  33  35 0
 6-311+G(2d,p)
 ****
 37  38 0
 6-311+G(2d,p)
 ****
 1  2  3  4  5  17  18  19  20  21  22  23  24  25 0
 3-21G
 ****
 27  28  29  34  36  39  40  41  42  43  44  45  46 0
 3-21G
 ****


