%nproc=1
%NoSave
%Mem=1900MB
#P OB98/GEN NMR

erre ene a

0 1
  C      106.508    -145.984     -27.120
  O      106.209    -146.552     -25.841
  P      107.473    -146.917     -24.919
  C      107.863    -149.045     -26.348
  O      108.438    -147.885     -25.764
  C      108.899    -150.166     -26.509
  O      110.038    -149.714     -27.299
  C      109.458    -150.684     -25.176
  O      109.705    -152.088     -25.340
  C      110.788    -149.960     -25.069
  O      111.661    -150.602     -24.140
  C      111.229    -150.000     -26.531
  N      116.159    -149.039     -26.004
  C      115.388    -150.049     -25.461
  N      116.034    -150.965     -24.706
  N      114.094    -150.151     -25.642
  C      113.593    -149.184     -26.452
  C      114.256    -148.144     -27.062
  C      115.679    -148.025     -26.826
  O      116.410    -147.154     -27.286
  N      113.403    -147.383     -27.836
  C      112.219    -147.939     -27.631
  N      112.287    -149.062     -26.847
  O      106.845    -147.878     -23.804
  O      108.140    -145.724     -24.313
  H      112.547    -150.192     -24.234
  H      106.694    -147.381     -22.977
  H      117.149    -149.000     -25.815
  H      111.286    -147.584     -28.043
  H      111.600    -150.991     -26.825
  H      110.634    -148.926     -24.736
  H      117.034    -150.978     -24.570
  H      108.809    -150.510     -24.311
  H      115.498    -151.742     -24.331
  H      108.426    -150.993     -27.055
  H      107.447    -148.803     -27.329
  H      107.019    -149.375     -25.732
  P      108.562    -153.111     -24.871
  C      109.661    -154.031     -22.714
  O      108.651    -153.219     -23.277
  O      109.115    -154.528     -25.374
  O      107.205    -152.832     -25.439
  H      108.373    -155.072     -25.705
  H      109.896    -153.660     -21.714
  H      110.577    -154.019     -23.316
  H      109.300    -155.059     -22.632
  H      105.596    -145.783     -27.643
  H      107.100    -146.672     -27.686
  H      107.052    -145.072     -26.987

 3  4  5  6  7  8  9  10  11  12  23  26  30  31 0
 6-311+G(2d,p)
 ****
 33  35  36  37  38 0
 6-311+G(2d,p)
 ****
 1  2  13  14  15  16  17  18  19  20  21  22  24  25 0
 3-21G
 ****
 27  28  29  32  34  39  40  41  42  43  44  45  46  47  48  49 0
 3-21G
 ****


