%nproc=1
%NoSave
%Mem=1900MB
#P OB98/GEN NMR

erre ene a

0 1
  C      -27.592      62.674     -11.642
  O      -26.503      62.032     -11.001
  P      -26.677      60.590     -10.335
  C      -26.230      61.609      -7.957
  O      -27.018      60.786      -8.790
  C      -27.157      62.461      -7.080
  O      -27.906      63.383      -7.898
  C      -28.152      61.596      -6.311
  O      -27.663      61.306      -5.011
  C      -29.403      62.453      -6.309
  O      -29.331      63.447      -5.270
  C      -29.322      63.125      -7.700
  N      -29.816      62.370      -8.867
  C      -30.603      63.012      -9.819
  O      -30.898      64.201      -9.771
  N      -31.068      62.218     -10.838
  C      -30.788      60.893     -11.008
  O      -31.395      60.149     -11.769
  C      -29.745      60.350     -10.133
  C      -29.332      61.092      -9.107
  O      -25.183      60.020     -10.315
  O      -27.619      59.668     -11.036
  H      -30.149      63.973      -5.320
  H      -25.034      59.416     -11.066
  H      -31.753      62.644     -11.454
  H      -29.389      59.346     -10.321
  H      -28.586      60.695      -8.422
  H      -29.839      64.091      -7.699
  H      -30.289      61.857      -6.098
  H      -28.361      60.673      -6.866
  H      -26.545      63.048      -6.384
  H      -25.585      62.250      -8.566
  H      -25.577      60.994      -7.331
  P      -27.599      59.788      -4.512
  C      -29.456      60.334      -2.833
  O      -29.045      59.488      -3.887
  O      -26.439      59.445      -3.637
  O      -27.580      58.952      -5.879
  H      -26.659      58.705      -6.104
  H      -30.511      60.145      -2.622
  H      -29.331      61.385      -3.111
  H      -28.871      60.116      -1.935
  H      -27.274      63.623     -12.020
  H      -28.385      62.818     -10.939
  H      -27.939      62.066     -12.451

 3  4  5  6  7  8  9  10  11  12  13  23  28  29  30  31  32 0
 6-311+G(2d,p)
 ****
 33  34 0
 6-311+G(2d,p)
 ****
 1  2  14  15  16  17  18  19  20  21  22  24  25  26  27 0
 3-21G
 ****
 35  36  37  38  39  40  41  42  43  44  45 0
 3-21G
 ****


