%nproc=1
%NoSave
%Mem=1900MB
#P OB98/GEN NMR

erre ene a

0 1
  C      435.931     453.738    -328.050
  O      436.356     452.415    -327.785
  H      436.702     454.237    -328.641
  H      435.798     454.282    -327.115
  H      434.997     453.734    -328.626
  P      435.359     451.419    -327.012
  C      435.532     449.337    -328.514
  O      435.902     449.929    -327.277
  C      436.563     448.302    -328.954
  O      437.681     448.986    -329.576
  C      437.120     447.464    -327.796
  O      437.318     446.124    -328.254
  C      438.466     448.109    -327.503
  O      439.394     447.191    -326.914
  C      438.888     448.596    -328.886
  N      443.778     449.808    -328.504
  C      443.172     448.562    -328.643
  N      443.990     447.487    -328.663
  N      441.878     448.406    -328.755
  C      441.184     449.569    -328.739
  C      441.665     450.849    -328.608
  C      443.100     451.024    -328.465
  O      443.701     452.085    -328.316
  N      440.651     451.768    -328.598
  C      439.547     451.040    -328.738
  N      439.827     449.703    -328.806
  O      433.903     451.610    -327.313
  O      435.688     451.658    -325.467
  H      438.967     446.835    -326.100
  H      435.023     452.246    -325.061
  H      444.782     449.875    -328.420
  H      438.540     451.434    -328.772
  H      439.377     447.801    -329.481
  H      438.327     448.951    -326.816
  H      444.991     447.545    -328.593
  H      436.467     447.462    -326.916
  H      443.569     446.575    -328.784
  H      436.110     447.661    -329.712
  H      435.461     450.133    -329.272
  H      434.540     448.863    -328.413
  P      437.604     444.973    -327.174
  C      435.567     443.538    -327.843
  O      436.984     443.601    -327.730
  O      437.243     445.298    -325.759
  O      439.185     444.724    -327.331
  H      439.544     444.440    -326.470
  H      435.282     442.579    -328.222
  H      435.228     444.301    -328.512
  H      435.125     443.686    -326.880

 6  7  8  9  10  11  12  13  14  15  26  29  33  34 0
 6-311+G(2d,p)
 ****
 36  38  39  40  41 0
 6-311+G(2d,p)
 ****
 1  2  3  4  5  16  17  18  19  20  21  22  23  24  25 0
 3-21G
 ****
 27  28  30  31  32  35  37  42  43  44  45  46  47 0
 3-21G
 ****
 48  49 0
 3-21G
 ****


