%nproc=1
%NoSave
%Mem=1900MB
#P OB98/GEN NMR

erre ene a

0 1
  C       46.385     -76.813       5.072
  O       45.464     -75.750       5.211
  H       46.713     -77.127       6.067
  H       47.258     -76.487       4.500
  H       45.909     -77.661       4.571
  P       44.943     -75.076       3.848
  C       46.850     -73.303       4.031
  O       46.250     -74.342       3.270
  C       48.024     -72.712       3.258
  O       48.973     -73.742       2.906
  C       47.633     -72.051       1.940
  O       47.085     -70.754       2.113
  C       48.983     -72.007       1.247
  O       49.780     -70.947       1.810
  C       49.556     -73.393       1.621
  N       49.264     -74.425       0.625
  C       50.364     -75.018      -0.006
  O       51.510     -74.666       0.271
  N       50.138     -75.976      -0.967
  C       48.924     -76.321      -1.264
  N       48.759     -77.264      -2.231
  C       47.738     -75.734      -0.612
  C       47.978     -74.804       0.310
  O       44.048     -73.848       4.352
  O       44.254     -75.988       2.888
  H       49.941     -71.180       2.743
  H       43.780     -73.291       3.582
  H       46.744     -76.046      -0.901
  H       47.154     -74.327       0.829
  H       50.644     -73.341       1.763
  H       48.908     -71.818       0.174
  H       46.959     -72.686       1.354
  H       48.543     -72.004       3.921
  H       49.587     -77.603      -2.703
  H       47.194     -73.725       4.980
  H       47.859     -77.462      -2.652
  H       46.116     -72.516       4.235
  P       45.928     -70.294       1.101
  C       47.686     -68.945      -0.253
  O       46.641     -69.906      -0.284
  O       45.475     -68.878       1.689
  O       44.777     -71.246       0.982
  H       44.509     -68.757       1.620
  H       48.060     -68.792      -1.244
  H       48.477     -69.298       0.376
  H       47.309     -68.021       0.133

 6  7  8  9  10  11  12  13  14  15  16  26  30  31  32  33  35 0
 6-311+G(2d,p)
 ****
 37  38 0
 6-311+G(2d,p)
 ****
 1  2  3  4  5  17  18  19  20  21  22  23  24  25 0
 3-21G
 ****
 27  28  29  34  36  39  40  41  42  43  44  45  46 0
 3-21G
 ****


