%nproc=1
%NoSave
%Mem=1900MB
#P OB98/GEN NMR

erre ene a

0 1
  C       -0.194    -639.555    1035.578
  O       -1.339    -638.860    1035.129
  H        0.691    -639.184    1035.053
  H       -0.067    -639.369    1036.648
  H       -0.302    -640.630    1035.416
  P       -1.893    -639.220    1033.667
  C       -3.824    -640.644    1034.659
  O       -2.683    -640.611    1033.810
  C       -4.637    -641.914    1034.407
  O       -5.366    -641.744    1033.155
  C       -3.803    -643.193    1034.298
  O       -4.523    -644.260    1034.935
  C       -3.756    -643.458    1032.805
  O       -3.551    -644.833    1032.490
  C       -5.114    -642.923    1032.366
  N       -5.421    -644.992    1027.727
  C       -5.714    -645.481    1028.951
  N       -5.652    -644.839    1030.137
  C       -5.308    -643.555    1029.969
  C       -4.985    -642.910    1028.776
  C       -5.030    -643.704    1027.619
  N       -4.671    -643.243    1026.372
  N       -4.627    -641.601    1029.026
  C       -4.705    -641.459    1030.327
  N       -5.112    -642.613    1030.942
  O       -0.549    -639.630    1032.883
  O       -2.632    -638.129    1032.967
  H       -3.843    -644.988    1031.567
  H       -0.139    -638.833    1032.499
  H       -6.027    -646.519    1028.993
  H       -4.450    -640.566    1030.882
  H       -5.930    -643.643    1032.541
  H       -2.940    -642.880    1032.358
  H       -2.804    -643.112    1034.743
  H       -5.390    -642.003    1035.202
  H       -4.444    -639.771    1034.452
  H       -4.635    -643.906    1025.617
  H       -4.278    -642.312    1026.296
  H       -3.493    -640.609    1035.703
  P       -3.669    -645.374    1035.703
  C       -4.372    -644.400    1038.017
  O       -3.310    -644.828    1037.167
  O       -2.256    -645.341    1034.942
  O       -4.274    -646.740    1035.669
  H       -1.856    -646.230    1034.937
  H       -3.969    -644.067    1038.951
  H       -5.043    -645.216    1038.188
  H       -4.901    -643.596    1037.550

 6  7  8  9  10  11  12  13  14  15  25  28  32  33  34  35 0
 6-311+G(2d,p)
 ****
 36  39  40 0
 6-311+G(2d,p)
 ****
 1  2  3  4  5  16  17  18  19  20  21  22  23  24 0
 3-21G
 ****
 26  27  29  30  31  37  38  41  42  43  44  45  46  47 0
 3-21G
 ****
 48 0
 3-21G
 ****


