%nproc=1
%NoSave
%Mem=1900MB
#P OB98/GEN NMR

erre ene a

0 1
  C      304.394    -123.964     639.275
  O      303.632    -123.037     638.527
  H      304.904    -123.437     640.081
  H      305.149    -124.442     638.635
  H      303.737    -124.728     639.707
  P      302.828    -123.614     637.265
  C      303.580    -124.815     635.097
  O      303.979    -124.050     636.222
  C      304.548    -124.583     633.939
  O      305.901    -124.842     634.353
  C      304.309    -125.493     632.733
  O      303.282    -124.955     631.901
  C      305.663    -125.432     632.040
  O      305.756    -124.226     631.264
  C      306.639    -125.384     633.228
  N      309.257    -129.509     631.655
  C      308.676    -128.497     630.960
  N      307.954    -127.458     631.445
  C      307.854    -127.531     632.780
  C      308.395    -128.507     633.612
  C      309.131    -129.528     632.995
  N      309.714    -130.563     633.702
  N      308.079    -128.256     634.939
  C      307.415    -127.107     634.902
  N      307.229    -126.643     633.624
  O      301.747    -122.736     636.730
  O      302.332    -125.032     637.841
  H      304.910    -124.138     630.776
  H      303.032    -125.446     638.367
  H      308.820    -128.523     629.887
  H      307.086    -126.560     635.785
  H      307.480    -124.693     633.034
  H      305.820    -126.268     631.352
  H      304.101    -126.529     633.033
  H      304.492    -123.534     633.637
  H      302.567    -124.541     634.793
  H      310.051    -131.354     633.166
  H      309.503    -130.643     634.684
  H      303.580    -125.865     635.396
  P      302.576    -125.845     630.771
  C      303.350    -126.895     628.547
  O      303.685    -126.008     629.618
  O      301.247    -125.336     630.317
  O      302.500    -127.314     631.413
  H      301.861    -127.857     630.916
  H      304.156    -126.925     627.843
  H      302.464    -126.547     628.059
  H      303.180    -127.877     628.937

 6  7  8  9  10  11  12  13  14  15  25  28  32  33  34  35 0
 6-311+G(2d,p)
 ****
 36  39  40 0
 6-311+G(2d,p)
 ****
 1  2  3  4  5  16  17  18  19  20  21  22  23  24 0
 3-21G
 ****
 26  27  29  30  31  37  38  41  42  43  44  45  46  47 0
 3-21G
 ****
 48 0
 3-21G
 ****


