%nproc=1
%NoSave
%Mem=1900MB
#P OB98/GEN NMR

erre ene a

0 1
  C        0.444     -83.889    -134.215
  O        1.617     -84.093    -133.452
  P        2.474     -82.859    -132.903
  C        4.031     -83.018    -134.952
  O        3.176     -82.177    -134.181
  C        5.125     -82.183    -135.630
  O        6.119     -83.091    -136.204
  C        4.583     -81.293    -136.767
  O        4.942     -79.914    -136.663
  C        5.078     -82.006    -138.017
  O        5.131     -81.180    -139.167
  C        6.406     -82.599    -137.530
  N        6.911     -83.646    -138.416
  C        7.447     -83.241    -139.636
  O        7.524     -82.073    -140.007
  N        7.841     -84.242    -140.480
  C        7.657     -85.580    -140.280
  O        7.949     -86.421    -141.119
  C        7.053     -85.946    -138.983
  C        6.735     -84.983    -138.114
  O        3.411     -83.177    -131.787
  O        1.355     -81.776    -132.526
  H        4.238     -80.820    -139.318
  H        0.786     -81.496    -133.266
  H        8.228     -83.964    -141.366
  H        6.885     -86.996    -138.801
  H        6.287     -85.221    -137.154
  H        7.178     -81.829    -137.430
  H        4.377     -82.818    -138.239
  H        3.484     -81.279    -136.771
  H        5.613     -81.581    -134.857
  H        3.435     -83.515    -135.717
  H        4.464     -83.796    -134.314
  P        4.011     -78.684    -137.099
  C        5.127     -78.123    -139.379
  O        3.991     -78.613    -138.699
  O        4.305     -77.388    -136.414
  O        2.533     -79.189    -136.736
  H        1.968     -78.423    -136.525
  H        4.804     -77.675    -140.322
  H        5.800     -78.957    -139.605
  H        5.656     -77.368    -138.795
  H        0.023     -84.836    -134.482
  H        0.686     -83.343    -135.103
  H       -0.265     -83.334    -133.637

 3  4  5  6  7  8  9  10  11  12  13  23  28  29  30  31  32 0
 6-311+G(2d,p)
 ****
 33  34 0
 6-311+G(2d,p)
 ****
 1  2  14  15  16  17  18  19  20  21  22  24  25  26  27 0
 3-21G
 ****
 35  36  37  38  39  40  41  42  43  44  45 0
 3-21G
 ****


