%nproc=1
%NoSave
%Mem=1900MB
#P OB98/GEN NMR

erre ene a

0 1
  C      158.814     293.989    -197.835
  O      159.543     294.520    -198.947
  P      160.789     295.497    -198.683
  C      162.437     293.514    -198.485
  O      161.925     294.699    -197.884
  C      163.968     293.594    -198.578
  O      164.572     293.690    -197.263
  C      164.585     292.348    -199.196
  O      164.353     292.143    -200.570
  C      166.031     292.443    -198.739
  O      166.794     293.307    -199.587
  C      165.871     293.066    -197.334
  N      166.048     292.082    -196.259
  C      167.357     291.839    -195.856
  O      168.333     292.370    -196.385
  N      167.509     290.931    -194.846
  C      166.508     290.232    -194.233
  O      166.707     289.413    -193.346
  C      165.151     290.512    -194.716
  C      164.984     291.407    -195.693
  O      160.445     296.845    -198.137
  O      161.435     295.642    -200.146
  H      167.734     293.155    -199.384
  H      161.700     296.574    -200.264
  H      168.454     290.750    -194.536
  H      164.333     289.969    -194.261
  H      163.984     291.628    -196.067
  H      166.612     293.861    -197.179
  H      166.524     291.464    -198.754
  H      164.153     291.469    -198.693
  H      164.236     294.494    -199.132
  H      162.005     293.386    -199.477
  H      162.121     292.650    -197.891
  P      164.185     290.686    -201.234
  C      161.607     290.542    -200.966
  O      162.867     290.009    -200.620
  O      165.409     289.832    -201.339
  O      163.689     291.066    -202.711
  H      164.039     290.396    -203.334
  H      160.829     289.974    -200.447
  H      161.436     290.474    -202.041
  H      161.539     291.589    -200.648
  H      158.023     293.363    -198.193
  H      158.401     294.793    -197.263
  H      159.473     293.414    -197.218

 3  4  5  6  7  8  9  10  11  12  13  23  28  29  30  31  32 0
 6-311+G(2d,p)
 ****
 33  34 0
 6-311+G(2d,p)
 ****
 1  2  14  15  16  17  18  19  20  21  22  24  25  26  27 0
 3-21G
 ****
 35  36  37  38  39  40  41  42  43  44  45 0
 3-21G
 ****


