%nproc=1
%NoSave
%Mem=1900MB
#P OB98/GEN NMR

erre ene a

0 1
  C     -169.416     297.224     143.015
  O     -168.569     297.623     144.098
  P     -168.328     299.199     144.283
  C     -167.063     298.401     146.407
  O     -167.215     299.407     145.412
  C     -165.613     298.329     146.875
  O     -164.729     297.892     145.817
  C     -165.056     299.677     147.322
  O     -165.559     300.038     148.599
  C     -163.555     299.395     147.290
  O     -163.152     298.673     148.460
  C     -163.430     298.491     146.050
  N     -159.387     299.974     143.281
  C     -159.487     299.274     144.439
  N     -160.599     298.924     145.113
  C     -161.702     299.356     144.475
  C     -161.759     300.074     143.290
  C     -160.534     300.389     142.683
  N     -160.434     301.117     141.520
  N     -163.068     300.342     142.944
  C     -163.787     299.812     143.916
  N     -163.006     299.199     144.859
  O     -169.682     299.699     144.980
  O     -168.071     299.919     142.998
  H     -163.690     297.855     148.503
  H     -170.214     300.218     144.347
  H     -158.544     298.961     144.876
  H     -164.869     299.854     143.983
  H     -162.717     297.672     146.208
  H     -162.952     300.304     147.236
  H     -165.308     300.456     146.588
  H     -165.552     297.612     147.700
  H     -167.371     297.426     146.012
  H     -159.509     301.361     141.194
  H     -161.269     301.505     141.109
  H     -167.739     298.623     147.242
  P     -166.475     301.351     148.696
  C     -167.863     300.359     150.615
  O     -166.946     301.372     150.231
  O     -167.794     300.887     147.928
  O     -165.838     302.604     148.199
  H     -168.080     299.991     148.205
  H     -168.074     300.466     151.684
  H     -167.438     299.373     150.436
  H     -168.798     300.477     150.060
  H     -169.496     296.157     142.999
  H     -168.997     297.564     142.091
  H     -170.388     297.653     143.145

 3  4  5  6  7  8  9  10  11  12  22  25  29  30  31  32 0
 6-311+G(2d,p)
 ****
 33  36  37 0
 6-311+G(2d,p)
 ****
 1  2  13  14  15  16  17  18  19  20  21  23  24  26 0
 3-21G
 ****
 27  28  34  35  38  39  40  41  42  43  44  45  46  47  48 0
 3-21G
 ****


