%nproc=1
%NoSave
%Mem=1900MB
#P OB98/GEN NMR

erre ene a

0 1
  C     -892.480    1059.941     117.421
  O     -891.700    1059.683     116.246
  H     -891.840    1059.799     118.299
  H     -893.310    1059.245     117.476
  H     -892.840    1060.969     117.413
  P     -892.480    1059.740     114.854
  C     -892.170    1057.157     114.618
  O     -893.060    1058.272     114.587
  C     -892.820    1055.953     113.985
  O     -893.820    1055.393     114.899
  C     -893.600    1056.253     112.692
  O     -892.750    1056.361     111.568
  C     -894.510    1055.038     112.600
  O     -893.850    1053.921     111.995
  C     -894.830    1054.745     114.080
  N     -896.180    1055.188     114.446
  C     -897.120    1054.167     114.627
  O     -896.850    1052.976     114.516
  N     -898.390    1054.555     114.920
  C     -898.820    1055.844     115.007
  O     -900.000    1056.143     115.202
  C     -897.800    1056.889     114.783
  C     -896.550    1056.511     114.521
  O     -891.290    1059.860     113.792
  O     -893.470    1060.844     114.711
  H     -891.260    1060.771     113.431
  H     -894.500    1053.182     112.012
  H     -899.080    1053.821     115.056
  H     -898.120    1057.926     114.829
  H     -895.790    1057.260     114.329
  H     -894.760    1053.677     114.300
  H     -895.400    1055.271     112.013
  H     -894.210    1057.150     112.813
  H     -892.070    1055.167     113.807
  H     -891.900    1056.918     115.645
  H     -891.260    1057.441     114.053
  P     -893.430    1056.602     110.125
  C     -892.040    1054.556     109.157
  O     -893.310    1055.163     109.367
  O     -892.340    1057.519     109.413
  O     -894.810    1057.167     110.213
  H     -891.450    1057.368     109.789
  H     -892.170    1053.624     108.647
  H     -891.567    1054.383     110.101
  H     -891.428    1055.204     108.565

 6  7  8  9  10  11  12  13  14  15  16  27  31  32  33  34  35 0
 6-311+G(2d,p)
 ****
 36  37 0
 6-311+G(2d,p)
 ****
 1  2  3  4  5  17  18  19  20  21  22  23  24  25 0
 3-21G
 ****
 26  28  29  30  38  39  40  41  42  43  44  45 0
 3-21G
 ****


