%nproc=1
%NoSave
%Mem=1900MB
#P OB98/GEN NMR

erre ene a

0 1
  C      -37.503    -121.178     -43.421
  O      -36.533    -120.220     -43.779
  H      -37.279    -122.110     -43.949
  H      -38.502    -120.847     -43.716
  H      -37.474    -121.369     -42.346
  P      -36.727    -118.699     -43.298
  C      -35.545    -119.020     -41.043
  O      -35.472    -118.410     -42.327
  C      -34.153    -119.294     -40.473
  O      -33.544    -120.404     -41.185
  C      -33.196    -118.100     -40.575
  O      -32.526    -117.920     -39.325
  C      -32.205    -118.523     -41.650
  O      -30.958    -117.846     -41.528
  C      -32.175    -120.040     -41.441
  N      -31.629    -120.762     -42.584
  C      -30.468    -121.508     -42.355
  O      -29.938    -121.504     -41.243
  N      -29.913    -122.207     -43.396
  C      -30.439    -122.127     -44.577
  N      -29.835    -122.836     -45.570
  C      -31.636    -121.316     -44.875
  C      -32.177    -120.672     -43.843
  O      -38.061    -118.397     -42.705
  O      -36.388    -117.823     -44.592
  H      -30.498    -117.884     -42.396
  H      -36.779    -116.920     -44.490
  H      -32.030    -121.272     -45.880
  H      -33.064    -120.058     -43.966
  H      -31.581    -120.300     -40.553
  H      -32.620    -118.293     -42.640
  H      -33.694    -117.170     -40.837
  H      -34.266    -119.625     -39.434
  H      -29.018    -123.382     -45.323
  H      -36.111    -119.954     -41.132
  H      -30.152    -122.844     -46.527
  H      -36.078    -118.339     -40.370
  P      -32.376    -116.403     -38.817
  C      -34.736    -115.516     -39.408
  O      -33.830    -115.883     -38.379
  O      -32.069    -115.598     -40.165
  O      -31.298    -116.217     -37.801
  H      -31.114    -115.414     -40.237
  H      -35.658    -115.192     -38.972
  H      -34.918    -116.360     -40.041
  H      -34.315    -114.720     -39.987

 6  7  8  9  10  11  12  13  14  15  16  26  30  31  32  33  35 0
 6-311+G(2d,p)
 ****
 37  38 0
 6-311+G(2d,p)
 ****
 1  2  3  4  5  17  18  19  20  21  22  23  24  25 0
 3-21G
 ****
 27  28  29  34  36  39  40  41  42  43  44  45  46 0
 3-21G
 ****


