%nproc=1
%NoSave
%Mem=1900MB
#P OB98/GEN NMR

erre ene a

0 1
  C     -142.291    -168.101      45.115
  O     -142.995    -166.879      45.327
  P     -143.314    -166.237      46.755
  C     -145.865    -166.875      46.875
  O     -144.552    -167.019      47.402
  C     -146.914    -167.468      47.831
  O     -146.609    -168.881      48.040
  C     -146.897    -166.794      49.209
  O     -148.200    -166.549      49.743
  C     -145.977    -167.696      50.021
  O     -146.136    -167.554      51.425
  C     -146.294    -169.075      49.441
  N     -144.251    -172.821      52.252
  C     -145.320    -171.994      52.540
  N     -145.921    -172.174      53.738
  N     -145.755    -171.063      51.732
  C     -145.021    -170.937      50.606
  C     -143.926    -171.687      50.211
  C     -143.483    -172.747      51.090
  O     -142.556    -173.521      50.880
  N     -143.449    -171.269      48.996
  C     -144.230    -170.263      48.658
  N     -145.211    -170.026      49.604
  O     -143.360    -164.744      46.802
  O     -142.071    -166.711      47.671
  H     -146.096    -166.603      51.635
  H     -141.921    -165.998      48.323
  H     -143.974    -173.540      52.903
  H     -144.147    -169.684      47.743
  H     -147.165    -169.533      49.917
  H     -144.939    -167.409      49.784
  H     -145.564    -172.785      54.455
  H     -146.457    -165.793      49.150
  H     -146.553    -171.426      54.034
  H     -147.902    -167.401      47.359
  H     -145.873    -167.425      45.925
  H     -146.081    -165.829      46.651
  P     -148.914    -165.150      50.027
  C     -147.568    -164.684      52.161
  O     -147.910    -164.223      50.864
  O     -150.069    -165.480      51.087
  O     -149.502    -164.490      48.817
  H     -150.943    -165.269      50.701
  H     -147.110    -163.857      52.711
  H     -146.842    -165.500      52.079
  H     -148.456    -165.024      52.702
  H     -142.219    -168.294      44.065
  H     -142.817    -168.903      45.590
  H     -141.308    -168.023      45.531

 3  4  5  6  7  8  9  10  11  12  23  26  30  31 0
 6-311+G(2d,p)
 ****
 33  35  36  37  38 0
 6-311+G(2d,p)
 ****
 1  2  13  14  15  16  17  18  19  20  21  22  24  25 0
 3-21G
 ****
 27  28  29  32  34  39  40  41  42  43  44  45  46  47  48  49 0
 3-21G
 ****


