%nproc=1
%NoSave
%Mem=1900MB
#P OB98/GEN NMR

erre ene a

0 1
  C       18.849      29.010      13.800
  O       19.110      29.378      12.453
  P       18.964      28.238      11.329
  C       21.374      27.641      10.566
  O       20.294      27.348      11.445
  C       21.784      26.395       9.787
  O       21.958      25.282      10.685
  C       20.769      25.933       8.753
  O       20.869      26.660       7.540
  C       21.205      24.492       8.544
  O       22.348      24.449       7.671
  C       21.606      24.072       9.962
  N       19.899      19.496      11.472
  C       20.953      19.856      10.710
  N       21.335      21.096      10.343
  C       20.478      22.017      10.815
  C       19.339      21.796      11.572
  C       19.060      20.464      11.915
  N       18.001      20.101      12.716
  N       18.713      22.987      11.864
  C       19.462      23.912      11.305
  N       20.547      23.377      10.667
  O       19.180      29.047       9.965
  O       17.672      27.497      11.347
  H       23.011      25.061       8.043
  H       18.765      28.566       9.223
  H       21.578      19.041      10.357
  H       19.266      24.975      11.343
  H       22.488      23.422       9.970
  H       20.428      23.875       8.084
  H       19.750      25.953       9.159
  H       22.752      26.599       9.311
  H       22.227      27.992      11.153
  H       17.976      19.156      13.065
  H       17.502      20.835      13.205
  H       21.069      28.437       9.880
  P       19.497      27.204       6.905
  C       19.506      24.970       5.579
  O       18.756      25.908       6.327
  O       19.987      27.987       5.600
  O       18.702      28.069       7.823
  H       19.342      28.676       5.354
  H       18.948      24.031       5.534
  H       20.476      24.777       6.045
  H       19.654      25.341       4.562
  H       18.984      29.861      14.435
  H       19.525      28.235      14.095
  H       17.842      28.657      13.885

 3  4  5  6  7  8  9  10  11  12  22  25  29  30  31  32 0
 6-311+G(2d,p)
 ****
 33  36  37 0
 6-311+G(2d,p)
 ****
 1  2  13  14  15  16  17  18  19  20  21  23  24  26 0
 3-21G
 ****
 27  28  34  35  38  39  40  41  42  43  44  45  46  47  48 0
 3-21G
 ****


