%nproc=1
%NoSave
%Mem=1900MB
#P OB98/GEN NMR

erre ene a

0 1
  C      861.350    -637.257    -165.982
  O      862.455    -636.553    -166.510
  H      861.265    -637.036    -164.914
  H      861.514    -638.334    -166.102
  H      860.421    -636.965    -166.480
  P      862.543    -636.411    -168.107
  C      865.017    -637.140    -168.363
  O      864.075    -636.085    -168.455
  C      866.346    -636.623    -167.801
  O      866.157    -636.312    -166.385
  C      867.510    -637.630    -167.905
  O      868.721    -636.911    -168.176
  C      867.593    -638.192    -166.498
  O      868.879    -638.720    -166.207
  C      867.232    -636.955    -165.677
  N      869.109    -637.851    -161.106
  C      869.709    -637.325    -162.237
  N      871.032    -637.043    -162.159
  N      869.071    -637.091    -163.352
  C      867.744    -637.400    -163.283
  C      867.033    -637.931    -162.232
  C      867.761    -638.197    -161.011
  O      867.303    -638.688    -159.987
  N      865.728    -638.156    -162.593
  C      865.656    -637.781    -163.854
  N      866.857    -637.315    -164.319
  O      861.790    -635.023    -168.373
  O      861.934    -637.533    -168.880
  H      869.551    -638.107    -166.559
  H      860.853    -635.188    -168.591
  H      869.654    -638.029    -160.283
  H      864.769    -637.842    -164.475
  H      868.068    -636.241    -165.601
  H      866.849    -638.986    -166.367
  H      871.584    -637.167    -161.328
  H      867.359    -638.405    -168.666
  H      871.471    -636.616    -162.967
  H      866.600    -635.689    -168.305
  H      865.198    -637.551    -169.365
  H      864.612    -637.933    -167.731
  P      869.699    -637.477    -169.309
  C      871.992    -636.381    -168.739
  O      870.852    -636.393    -169.579
  O      868.806    -637.405    -170.629
  O      870.184    -638.871    -169.050
  H      869.022    -638.150    -171.220
  H      872.658    -635.604    -169.052
  H      872.491    -637.325    -168.802
  H      871.688    -636.204    -167.728

 6  7  8  9  10  11  12  13  14  15  26  29  33  34 0
 6-311+G(2d,p)
 ****
 36  38  39  40  41 0
 6-311+G(2d,p)
 ****
 1  2  3  4  5  16  17  18  19  20  21  22  23  24  25 0
 3-21G
 ****
 27  28  30  31  32  35  37  42  43  44  45  46  47 0
 3-21G
 ****
 48  49 0
 3-21G
 ****


