%nproc=1
%NoSave
%Mem=1900MB
#P OB98/GEN NMR

erre ene a

0 1
  C     -280.306    -441.463     219.372
  O     -280.569    -442.465     220.355
  P     -281.976    -442.426     221.106
  C     -281.469    -443.355     223.480
  O     -282.015    -443.630     222.184
  C     -280.734    -444.576     224.043
  O     -281.717    -445.628     224.315
  C     -279.716    -445.212     223.081
  O     -278.374    -444.730     223.121
  C     -279.676    -446.652     223.596
  O     -278.771    -446.741     224.732
  C     -281.107    -446.910     224.061
  N     -282.020    -451.544     222.046
  C     -281.169    -451.122     223.023
  N     -280.989    -449.874     223.502
  C     -281.803    -449.002     222.872
  C     -282.722    -449.271     221.872
  C     -282.814    -450.614     221.446
  N     -283.676    -451.036     220.449
  N     -283.375    -448.131     221.477
  C     -282.835    -447.168     222.211
  N     -281.891    -447.655     223.086
  O     -283.190    -442.307     220.257
  O     -281.822    -441.138     222.067
  H     -277.872    -446.653     224.361
  H     -282.684    -440.683     222.111
  H     -280.555    -451.896     223.475
  H     -283.105    -446.131     222.147
  H     -281.147    -447.482     225.002
  H     -279.302    -447.359     222.841
  H     -280.087    -445.206     222.051
  H     -280.251    -444.316     224.980
  H     -282.290    -443.067     224.162
  H     -283.642    -452.003     220.187
  H     -284.234    -450.352     219.966
  H     -280.821    -442.480     223.387
  P     -277.846    -443.665     222.037
  C     -275.598    -444.790     222.818
  O     -276.235    -443.749     222.120
  O     -278.407    -442.293     222.164
  O     -278.162    -444.400     220.646
  H     -277.623    -445.192     220.480
  H     -274.535    -444.781     222.574
  H     -276.027    -445.755     222.532
  H     -275.709    -444.633     223.890
  H     -279.332    -441.617     218.958
  H     -280.351    -440.496     219.828
  H     -281.038    -441.526     218.594

 3  4  5  6  7  8  9  10  11  12  22  25  29  30  31  32 0
 6-311+G(2d,p)
 ****
 33  36  37 0
 6-311+G(2d,p)
 ****
 1  2  13  14  15  16  17  18  19  20  21  23  24  26 0
 3-21G
 ****
 27  28  34  35  38  39  40  41  42  43  44  45  46  47  48 0
 3-21G
 ****


