%nproc=1
%NoSave
%Mem=1900MB
#P OB98/GEN NMR

erre ene a

0 1
  C     -695.174     951.310    -144.623
  O     -694.718     950.232    -145.448
  P     -695.378     950.102    -146.919
  C     -697.427     948.690    -146.138
  O     -696.955     949.919    -146.708
  C     -698.948     948.614    -146.222
  O     -699.396     948.396    -147.580
  C     -699.560     947.468    -145.406
  O     -699.645     947.783    -144.024
  C     -700.930     947.369    -146.034
  O     -701.814     948.349    -145.449
  C     -700.660     947.714    -147.512
  N     -702.612     945.392    -151.572
  C     -702.950     946.601    -151.002
  N     -703.929     947.306    -151.612
  N     -702.381     947.087    -149.934
  C     -701.403     946.279    -149.446
  C     -700.979     945.062    -149.926
  C     -701.640     944.534    -151.090
  O     -701.400     943.447    -151.621
  N     -699.946     944.552    -149.161
  C     -699.741     945.464    -148.255
  N     -700.596     946.547    -148.369
  O     -694.890     948.666    -147.406
  O     -694.970     951.191    -147.861
  H     -701.962     948.079    -144.520
  H     -694.844     948.638    -148.384
  H     -703.090     945.070    -152.405
  H     -698.976     945.422    -147.481
  H     -701.417     948.391    -147.916
  H     -701.410     946.404    -145.879
  H     -704.353     947.044    -152.491
  H     -698.994     946.531    -145.578
  H     -704.154     948.225    -151.230
  H     -699.356     949.567    -145.862
  H     -697.111     948.626    -145.090
  H     -696.950     947.855    -146.660
  P     -698.578     947.082    -143.045
  C     -700.174     945.276    -142.050
  O     -699.070     945.559    -142.902
  O     -698.943     947.733    -141.633
  O     -697.162     947.299    -143.414
  H     -698.132     947.744    -141.054
  H     -700.968     946.007    -142.181
  H     -699.821     945.246    -141.018
  H     -700.550     944.286    -142.310
  H     -694.662     951.282    -143.684
  H     -696.227     951.212    -144.458
  H     -694.975     952.241    -145.111

 3  4  5  6  7  8  9  10  11  12  23  26  30  31  33  0
 6-311+G(2d,p)
 ****
 35  36  37  38 0
 6-311+G(2d,p)
 ****
 1  2  13  14  15  16  17  18  19  20  21  22  24  25  27  28  29 0
 3-21G
 ****
 32  34  39  40  41  42  43  44  45  46  47  48  49 0
 3-21G
 ****


