%nproc=1
%NoSave
%Mem=1900MB
#P OB98/GEN NMR

erre ene a

0 1
  C      155.841     501.616     652.298
  O      156.927     502.398     652.769
  H      155.596     501.911     651.273
  H      156.140     500.564     652.297
  H      154.973     501.731     652.944
  P      156.624     503.924     653.137
  C      157.672     504.515     650.835
  O      157.602     504.817     652.224
  C      158.732     505.386     650.152
  O      158.340     506.789     650.289
  C      160.151     505.235     650.738
  O      161.084     505.284     649.655
  C      160.307     506.477     651.591
  O      161.671     506.858     651.759
  C      159.489     507.492     650.799
  N      160.702     512.240     652.154
  C      161.094     511.472     651.119
  N      160.678     510.234     650.797
  C      159.721     509.817     651.643
  C      159.207     510.490     652.737
  C      159.764     511.757     653.000
  N      159.418     512.522     654.094
  N      158.264     509.714     653.396
  C      158.222     508.582     652.709
  N      159.086     508.597     651.649
  O      157.261     504.055     654.607
  O      155.183     504.326     653.115
  H      162.133     506.162     652.265
  H      156.598     503.801     655.272
  H      161.842     511.907     650.461
  H      157.629     507.717     652.966
  H      160.037     507.913     649.950
  H      159.868     506.307     652.580
  H      160.294     504.305     651.302
  H      158.726     505.155     649.085
  H      156.696     504.714     650.384
  H      159.945     513.375     654.257
  H      158.800     512.127     654.792
  H      157.913     503.454     650.710
  P      161.293     503.945     648.786
  C      162.729     503.101     650.797
  O      162.543     503.145     649.383
  O      161.829     504.492     647.384
  O      160.040     503.137     648.623
  H      161.522     503.933     646.660
  H      163.605     502.530     651.024
  H      161.877     502.644     651.255
  H      162.845     504.096     651.173

 6  7  8  9  10  11  12  13  14  15  25  28  32  33  34  35 0
 6-311+G(2d,p)
 ****
 36  39  40 0
 6-311+G(2d,p)
 ****
 1  2  3  4  5  16  17  18  19  20  21  22  23  24 0
 3-21G
 ****
 26  27  29  30  31  37  38  41  42  43  44  45  46  47 0
 3-21G
 ****
 48 0
 3-21G
 ****


