%nproc=1
%NoSave
%Mem=1900MB
#P OB98/GEN NMR

erre ene a

0 1
  C       83.235    -134.696      40.416
  O       81.833    -134.671      40.212
  P       81.139    -136.048      39.755
  C       81.847    -135.642      37.274
  O       80.799    -135.884      38.199
  C       81.493    -136.261      35.921
  O       81.590    -137.698      35.986
  C       80.082    -135.951      35.441
  O       80.032    -134.670      34.840
  C       79.832    -137.098      34.470
  O       80.439    -136.830      33.191
  C       80.529    -138.271      35.174
  N       77.792    -142.515      35.380
  C       78.434    -141.923      34.310
  N       78.374    -142.585      33.134
  N       79.079    -140.790      34.385
  C       79.045    -140.235      35.619
  C       78.431    -140.715      36.753
  C       77.767    -141.995      36.667
  O       77.268    -142.607      37.607
  N       78.595    -139.862      37.812
  C       79.333    -138.885      37.327
  N       79.651    -139.073      36.007
  O       79.715    -135.991      40.476
  O       81.906    -137.288      40.090
  H       80.077    -136.000      32.833
  H       79.721    -136.519      41.297
  H       77.326    -143.397      35.267
  H       79.679    -138.034      37.892
  H       81.004    -138.956      34.462
  H       78.766    -137.256      34.283
  H       77.875    -143.449      32.994
  H       79.372    -136.014      36.275
  H       78.835    -142.163      32.336
  H       82.232    -135.912      35.189
  H       82.769    -136.096      37.648
  H       81.997    -134.562      37.178
  P       78.629    -133.893      34.869
  C       77.523    -134.959      32.778
  O       78.103    -133.809      33.360
  O       79.050    -132.388      35.214
  O       77.649    -134.423      35.860
  H       78.370    -131.980      35.783
  H       76.785    -134.644      32.037
  H       77.032    -135.590      33.525
  H       78.303    -135.538      32.275
  H       83.569    -133.725      40.715
  H       83.723    -134.977      39.506
  H       83.472    -135.406      41.181

 3  4  5  6  7  8  9  10  11  12  23  26  30  31 0
 6-311+G(2d,p)
 ****
 33  35  36  37  38 0
 6-311+G(2d,p)
 ****
 1  2  13  14  15  16  17  18  19  20  21  22  24  25 0
 3-21G
 ****
 27  28  29  32  34  39  40  41  42  43  44  45  46  47  48  49 0
 3-21G
 ****


