%nproc=1
%NoSave
%Mem=1900MB
#P OB98/GEN NMR

erre ene a

0 1
  C      599.555     401.755     367.799
  O      599.380     400.564     368.556
  P      600.706     399.793     369.044
  C      601.507     401.756     370.546
  O      601.763     400.946     369.406
  C      602.713     401.763     371.484
  O      602.929     400.444     372.025
  C      604.025     402.157     370.821
  O      604.171     403.562     370.712
  C      605.025     401.598     371.819
  O      605.147     402.484     372.943
  C      604.357     400.284     372.244
  N      608.383     397.249     371.400
  C      608.242     398.368     372.142
  N      607.138     399.126     372.306
  C      606.118     398.649     371.576
  C      606.124     397.539     370.744
  C      607.323     396.809     370.678
  N      607.461     395.654     369.942
  N      604.890     397.362     370.161
  C      604.146     398.340     370.635
  N      604.837     399.134     371.504
  O      601.283     399.175     367.688
  O      600.481     398.755     370.089
  H      605.515     403.322     372.608
  H      601.853     398.406     367.887
  H      609.126     398.690     372.681
  H      603.103     398.501     370.390
  H      604.495     400.077     373.310
  H      606.030     401.482     371.393
  H      604.146     401.657     369.854
  H      602.486     402.436     372.322
  H      600.641     401.360     371.084
  H      608.285     395.100     370.091
  H      606.621     395.229     369.572
  H      601.277     402.772     370.218
  P      605.280     404.100     369.677
  C      603.865     403.601     367.553
  O      605.017     403.283     368.322
  O      606.638     403.476     370.244
  O      605.337     405.588     369.561
  H      607.397     404.022     369.974
  H      604.003     403.193     366.546
  H      603.719     404.674     367.483
  H      602.986     403.131     368.000
  H      598.598     402.159     367.544
  H      600.098     401.532     366.905
  H      600.101     402.470     368.379

 3  4  5  6  7  8  9  10  11  12  22  25  29  30  31  32 0
 6-311+G(2d,p)
 ****
 33  36  37 0
 6-311+G(2d,p)
 ****
 1  2  13  14  15  16  17  18  19  20  21  23  24  26 0
 3-21G
 ****
 27  28  34  35  38  39  40  41  42  43  44  45  46  47  48 0
 3-21G
 ****


