%nproc=1
%NoSave
%Mem=1900MB
#P OB98/GEN NMR

erre ene a

0 1
  C      124.855     -31.186     109.290
  O      125.269     -31.758     108.065
  H      125.651     -31.315     110.029
  H      123.953     -31.686     109.654
  H      124.661     -30.116     109.165
  P      124.291     -31.576     106.807
  C      122.311     -32.953     105.819
  O      123.393     -32.907     106.738
  C      121.410     -34.150     106.134
  O      122.152     -35.372     105.868
  C      120.958     -34.199     107.601
  O      119.618     -34.697     107.659
  C      121.911     -35.206     108.225
  O      121.403     -35.821     109.403
  C      122.103     -36.183     107.063
  N      123.321     -36.985     107.195
  C      123.261     -38.113     108.006
  O      122.243     -38.527     108.559
  N      124.449     -38.781     108.179
  C      125.658     -38.427     107.652
  O      126.687     -39.055     107.863
  C      125.660     -37.221     106.809
  C      124.509     -36.565     106.625
  O      125.270     -31.733     105.552
  O      123.510     -30.304     106.773
  H      125.630     -30.862     105.287
  H      120.564     -36.271     109.169
  H      124.424     -39.604     108.763
  H      126.600     -36.906     106.382
  H      124.478     -35.663     106.022
  H      121.232     -36.846     106.970
  H      122.860     -34.717     108.483
  H      121.014     -33.227     108.096
  H      120.548     -34.138     105.455
  H      122.707     -33.059     104.803
  H      121.740     -32.019     105.886
  P      118.487     -33.707     108.231
  C      117.848     -32.864     110.625
  O      118.740     -33.616     109.816
  O      117.173     -34.607     108.088
  O      118.439     -32.399     107.509
  H      117.330     -35.552     108.270
  H      118.165     -32.912     111.646
  H      116.861     -33.269     110.539
  H      117.845     -31.845     110.300

 6  7  8  9  10  11  12  13  14  15  16  27  31  32  33  34  35 0
 6-311+G(2d,p)
 ****
 36  37 0
 6-311+G(2d,p)
 ****
 1  2  3  4  5  17  18  19  20  21  22  23  24  25 0
 3-21G
 ****
 26  28  29  30  38  39  40  41  42  43  44  45 0
 3-21G
 ****


