%nproc=1
%NoSave
%Mem=1900MB
#P OB98/GEN NMR

erre ene a

0 1
  C      474.925    -430.751    -461.828
  O      474.129    -431.910    -461.680
  H      474.267    -429.876    -461.854
  H      475.483    -430.797    -462.765
  H      475.615    -430.649    -460.986
  P      474.912    -433.295    -461.442
  C      474.525    -434.250    -463.859
  O      475.431    -433.756    -462.888
  C      475.277    -434.913    -465.016
  O      476.071    -433.899    -465.685
  C      476.225    -436.032    -464.574
  O      476.222    -437.048    -465.577
  C      477.584    -435.352    -464.546
  O      478.653    -436.288    -464.677
  C      477.445    -434.354    -465.706
  N      478.384    -433.242    -465.598
  C      479.733    -433.540    -465.781
  O      480.093    -434.702    -465.997
  N      480.667    -432.534    -465.661
  C      480.274    -431.339    -465.327
  N      481.248    -430.391    -465.203
  C      478.867    -430.987    -465.089
  C      477.982    -431.976    -465.248
  O      473.703    -434.299    -461.131
  O      475.956    -433.232    -460.379
  H      478.520    -436.801    -465.501
  H      472.951    -434.200    -461.735
  H      478.591    -429.981    -464.800
  H      476.917    -431.804    -465.093
  H      477.617    -434.856    -466.669
  H      477.716    -434.818    -463.598
  H      475.944    -436.466    -463.614
  H      474.544    -435.280    -465.742
  H      482.206    -430.687    -465.355
  H      473.902    -433.436    -464.247
  H      481.070    -429.447    -464.898
  H      473.868    -434.974    -463.368
  P      475.369    -438.382    -465.353
  C      477.554    -439.645    -464.772
  O      476.198    -439.393    -464.420
  O      474.777    -438.989    -466.580
  O      474.200    -437.880    -464.364
  H      473.366    -438.304    -464.655
  H      477.983    -440.331    -464.071
  H      478.103    -438.727    -464.755
  H      477.595    -440.067    -465.755

 6  7  8  9  10  11  12  13  14  15  16  26  30  31  32  33  35 0
 6-311+G(2d,p)
 ****
 37  38 0
 6-311+G(2d,p)
 ****
 1  2  3  4  5  17  18  19  20  21  22  23  24  25 0
 3-21G
 ****
 27  28  29  34  36  39  40  41  42  43  44  45  46 0
 3-21G
 ****


