%nproc=1
%NoSave
%Mem=1900MB
#P OB98/GEN NMR

erre ene a

0 1
  C     -512.594    -522.620     -76.716
  O     -512.957    -522.266     -78.045
  P     -512.473    -520.851     -78.612
  C     -510.230    -521.948     -79.334
  O     -510.868    -520.863     -78.678
  C     -509.433    -521.459     -80.555
  O     -508.486    -520.440     -80.129
  C     -508.633    -522.567     -81.257
  O     -508.590    -522.295     -82.660
  C     -507.234    -522.388     -80.709
  O     -506.256    -522.928     -81.590
  C     -507.169    -520.865     -80.559
  N     -503.371    -517.607     -79.823
  C     -504.372    -517.587     -80.776
  N     -504.291    -516.617     -81.713
  N     -505.356    -518.444     -80.808
  C     -505.309    -519.363     -79.814
  C     -504.382    -519.477     -78.796
  C     -503.284    -518.536     -78.775
  O     -502.354    -518.506     -77.976
  N     -504.676    -520.512     -77.961
  C     -505.763    -521.063     -78.472
  N     -506.163    -520.427     -79.621
  O     -512.791    -519.848     -77.399
  O     -513.158    -520.414     -79.863
  H     -505.381    -522.756     -81.190
  H     -513.582    -519.311     -77.610
  H     -502.631    -516.934     -79.846
  H     -506.280    -521.927     -78.084
  H     -506.976    -520.376     -81.531
  H     -507.140    -522.887     -79.736
  H     -503.520    -515.971     -81.783
  H     -509.025    -523.581     -81.079
  H     -504.986    -516.606     -82.446
  H     -510.127    -520.978     -81.245
  H     -510.992    -522.655     -79.671
  H     -509.564    -522.474     -78.635
  P     -508.390    -523.572     -83.611
  C     -510.952    -524.028     -83.644
  O     -509.656    -524.519     -83.363
  O     -507.182    -524.361     -82.912
  O     -508.100    -523.233     -85.034
  H     -506.704    -524.909     -83.569
  H     -511.386    -524.632     -84.438
  H     -510.935    -522.975     -83.960
  H     -511.575    -524.116     -82.746
  H     -512.988    -523.587     -76.484
  H     -512.993    -521.899     -76.033
  H     -511.528    -522.640     -76.631

 3  4  5  6  7  8  9  10  11  12  23  26  30  31 0
 6-311+G(2d,p)
 ****
 33  35  36  37  38 0
 6-311+G(2d,p)
 ****
 1  2  13  14  15  16  17  18  19  20  21  22  24  25 0
 3-21G
 ****
 27  28  29  32  34  39  40  41  42  43  44  45  46  47  48  49 0
 3-21G
 ****


