%nproc=1
%NoSave
%Mem=1900MB
#P OB98/GEN NMR

erre ene a

0 1
  C     1231.273    1164.765    -337.636
  O     1232.495    1165.352    -338.064
  H     1231.471    1163.731    -337.348
  H     1230.534    1164.773    -338.433
  H     1230.886    1165.304    -336.761
  P     1232.453    1166.841    -338.645
  C     1233.834    1166.776    -340.832
  O     1233.828    1167.063    -339.433
  C     1234.656    1165.525    -341.136
  O     1233.878    1164.353    -340.767
  C     1235.051    1165.369    -342.620
  O     1236.294    1164.681    -342.686
  C     1233.923    1164.497    -343.135
  O     1234.220    1163.951    -344.392
  C     1233.765    1163.527    -341.959
  N     1232.502    1162.805    -341.981
  C     1232.592    1161.449    -342.373
  O     1233.678    1160.940    -342.657
  N     1231.446    1160.697    -342.427
  C     1230.295    1161.290    -342.190
  N     1229.190    1160.500    -342.279
  C     1230.173    1162.716    -341.849
  C     1231.284    1163.392    -341.756
  O     1232.125    1167.912    -337.661
  O     1231.359    1166.776    -339.828
  H     1234.921    1163.280    -344.322
  H     1230.537    1167.187    -339.528
  H     1229.164    1163.161    -341.695
  H     1231.295    1164.475    -341.503
  H     1234.594    1162.799    -341.935
  H     1233.006    1165.091    -343.262
  H     1235.112    1166.332    -343.148
  H     1235.552    1165.540    -340.496
  H     1229.316    1159.514    -342.533
  H     1234.251    1167.639    -341.339
  H     1228.240    1160.842    -342.153
  H     1232.794    1166.627    -341.194
  P     1237.499    1165.121    -343.645
  C     1237.749    1162.828    -344.771
  O     1238.385    1163.839    -344.006
  O     1238.286    1166.281    -343.139
  O     1236.791    1165.495    -345.038
  H     1237.317    1166.187    -345.476
  H     1238.437    1162.028    -344.947
  H     1237.430    1163.237    -345.707
  H     1236.900    1162.457    -344.236

 6  7  8  9  10  11  12  13  14  15  16  26  30  31  32  33  35 0
 6-311+G(2d,p)
 ****
 37  38 0
 6-311+G(2d,p)
 ****
 1  2  3  4  5  17  18  19  20  21  22  23  24  25 0
 3-21G
 ****
 27  28  29  34  36  39  40  41  42  43  44  45  46 0
 3-21G
 ****


