%nproc=1
%NoSave
%Mem=1900MB
#P OB98/GEN NMR

erre ene a

0 1
  C     -227.466     196.122    -241.877
  O     -227.947     197.356    -242.422
  P     -229.467     197.400    -242.930
  C     -229.919     199.831    -242.137
  O     -229.867     198.928    -243.230
  C     -229.857     201.290    -242.612
  O     -228.529     201.615    -243.107
  C     -230.841     201.610    -243.741
  O     -231.226     202.981    -243.629
  C     -229.987     201.442    -244.982
  O     -230.562     202.096    -246.114
  C     -228.666     202.027    -244.483
  N     -225.275     203.417    -247.951
  C     -226.327     204.122    -247.399
  N     -226.472     205.402    -247.808
  N     -227.157     203.622    -246.523
  C     -226.864     202.343    -246.184
  C     -225.859     201.536    -246.662
  C     -224.960     202.098    -247.650
  O     -224.023     201.513    -248.184
  N     -225.902     200.287    -246.091
  C     -226.936     200.343    -245.274
  N     -227.530     201.578    -245.268
  O     -230.298     197.052    -241.607
  O     -229.766     196.433    -244.028
  H     -231.418     201.656    -246.302
  H     -230.670     196.157    -241.680
  H     -224.672     203.850    -248.629
  H     -227.300     199.524    -244.671
  H     -228.659     203.124    -244.515
  H     -229.877     200.376    -245.221
  H     -225.836     205.866    -248.439
  H     -231.739     200.983    -243.759
  H     -227.209     205.957    -247.387
  H     -230.054     201.943    -241.755
  H     -229.092     199.639    -241.450
  H     -230.830     199.638    -241.561
  P     -232.792     203.309    -243.716
  C     -232.647     205.503    -242.334
  O     -232.926     204.901    -243.583
  O     -233.367     202.769    -242.321
  O     -233.494     202.699    -244.883
  H     -234.313     202.551    -242.405
  H     -231.664     205.977    -242.380
  H     -232.668     204.779    -241.515
  H     -233.399     206.274    -242.141
  H     -226.444     196.237    -241.581
  H     -227.538     195.353    -242.617
  H     -228.056     195.854    -241.025

 3  4  5  6  7  8  9  10  11  12  23  26  30  31 0
 6-311+G(2d,p)
 ****
 33  35  36  37  38 0
 6-311+G(2d,p)
 ****
 1  2  13  14  15  16  17  18  19  20  21  22  24  25 0
 3-21G
 ****
 27  28  29  32  34  39  40  41  42  43  44  45  46  47  48  49 0
 3-21G
 ****


