%nproc=1
%NoSave
%Mem=1900MB
#P OB98/GEN NMR

erre ene a

0 1
  C      692.713     362.073     -24.897
  O      693.650     362.791     -25.708
  P      695.182     362.340     -25.721
  C      695.157     361.806     -28.247
  O      695.438     361.331     -26.936
  C      695.043     360.624     -29.223
  O      693.891     359.801     -28.918
  C      694.842     361.068     -30.667
  O      695.936     361.685     -31.296
  C      694.294     359.806     -31.315
  O      695.332     358.896     -31.677
  C      693.434     359.210     -30.163
  N      691.999     359.426     -30.354
  C      691.421     358.787     -31.445
  O      692.074     358.113     -32.255
  N      690.085     358.988     -31.617
  C      689.281     359.763     -30.846
  O      688.086     359.926     -31.044
  C      689.957     360.433     -29.704
  C      691.262     360.235     -29.517
  O      695.741     361.914     -24.402
  O      695.938     363.678     -26.228
  H      694.914     358.062     -31.954
  H      696.753     363.776     -25.702
  H      689.650     358.521     -32.410
  H      689.349     361.065     -29.061
  H      691.771     360.716     -28.690
  H      693.607     358.129     -30.070
  H      693.732     360.035     -32.222
  H      694.032     361.806     -30.675
  H      695.928     359.999     -29.105
  H      695.938     362.489     -28.565
  H      694.227     362.392     -28.220
  P      696.205     363.274     -31.248
  C      698.628     363.068     -30.343
  O      697.320     363.547     -30.128
  O      695.013     364.166     -31.258
  O      697.033     363.500     -32.606
  H      696.823     364.379     -32.949
  H      699.252     363.341     -29.484
  H      699.061     363.519     -31.237
  H      698.622     361.979     -30.447
  H      691.741     362.506     -25.007
  H      693.014     362.128     -23.872
  H      692.685     361.049     -25.206

 3  4  5  6  7  8  9  10  11  12  13  23  28  29  30  31  32 0
 6-311+G(2d,p)
 ****
 33  34 0
 6-311+G(2d,p)
 ****
 1  2  14  15  16  17  18  19  20  21  22  24  25  26  27 0
 3-21G
 ****
 35  36  37  38  39  40  41  42  43  44  45 0
 3-21G
 ****


