%nproc=1
%NoSave
%Mem=1900MB
#P OB98/GEN NMR

erre ene a

0 1
  C       96.148     331.681    -111.797
  O       96.958     330.546    -111.572
  H       95.263     331.371    -112.358
  H       96.690     332.426    -112.386
  H       95.825     332.118    -110.849
  P       98.332     330.734    -110.765
  C       99.624     331.071    -112.986
  O       99.241     331.636    -111.742
  C      100.399     332.095    -113.812
  O       99.612     333.280    -114.053
  C      101.675     332.612    -113.159
  O      102.741     331.676    -113.159
  C      101.960     333.810    -114.046
  O      102.498     333.362    -115.304
  C      100.537     334.392    -114.219
  N      100.242     335.455    -113.259
  C      100.597     336.755    -113.634
  O      101.141     336.971    -114.717
  N      100.364     337.784    -112.754
  C       99.842     337.536    -111.594
  N       99.639     338.593    -110.760
  C       99.469     336.179    -111.151
  C       99.692     335.197    -112.021
  O       98.975     329.481    -110.265
  O       97.976     331.777    -109.604
  H      103.405     333.054    -115.130
  H       98.793     331.920    -109.066
  H       99.066     336.020    -110.160
  H       99.450     334.172    -111.765
  H      100.394     334.782    -115.236
  H      102.680     334.507    -113.618
  H      101.476     332.975    -112.142
  H      100.605     331.641    -114.791
  H       99.902     339.511    -111.092
  H       98.719     330.749    -113.510
  H       99.307     338.484    -109.811
  H      100.268     330.203    -112.822
  P      103.807     331.784    -111.960
  C      105.360     333.339    -113.372
  O      104.600     333.159    -112.186
  O      104.872     330.651    -112.322
  O      103.236     331.624    -110.586
  H      104.702     329.838    -111.807
  H      105.819     334.305    -113.358
  H      104.716     333.262    -114.223
  H      106.117     332.585    -113.428

 6  7  8  9  10  11  12  13  14  15  16  26  30  31  32  33  35 0
 6-311+G(2d,p)
 ****
 37  38 0
 6-311+G(2d,p)
 ****
 1  2  3  4  5  17  18  19  20  21  22  23  24  25 0
 3-21G
 ****
 27  28  29  34  36  39  40  41  42  43  44  45  46 0
 3-21G
 ****


