%nproc=1
%NoSave
%Mem=1900MB
#P OB98/GEN NMR

erre ene a

0 1
  C      229.560    -288.209      28.868
  O      229.235    -289.078      27.797
  H      229.209    -287.201      28.621
  H      230.641    -288.169      29.022
  H      229.065    -288.539      29.786
  P      229.782    -290.583      27.852
  C      228.160    -291.258      25.952
  O      229.510    -291.191      26.394
  C      228.070    -292.065      24.661
  O      228.766    -293.318      24.807
  C      226.643    -292.423      24.278
  O      225.968    -291.308      23.730
  C      226.883    -293.577      23.320
  O      227.255    -293.104      22.020
  C      228.067    -294.300      24.005
  N      227.644    -295.437      24.813
  C      227.830    -296.701      24.243
  O      228.329    -296.812      23.124
  N      227.416    -297.804      24.952
  C      226.888    -297.661      26.126
  N      226.504    -298.793      26.776
  C      226.688    -296.348      26.770
  C      227.079    -295.289      26.062
  O      229.295    -291.440      28.980
  O      231.373    -290.403      27.877
  H      226.443    -292.719      21.633
  H      231.694    -290.334      28.797
  H      226.248    -296.278      27.752
  H      226.972    -294.286      26.462
  H      228.782    -294.661      23.254
  H      225.996    -294.197      23.208
  H      226.102    -292.814      25.148
  H      228.562    -291.497      23.863
  H      226.651    -299.673      26.291
  H      227.826    -290.231      25.778
  H      226.164    -298.811      27.723
  H      227.521    -291.704      26.723
  P      224.574    -290.816      24.346
  C      225.316    -288.391      23.869
  O      224.304    -289.378      23.684
  O      224.478    -290.864      25.833
  O      223.502    -291.751      23.608
  H      223.519    -292.671      23.972
  H      225.022    -287.483      23.385
  H      226.235    -288.739      23.446
  H      225.451    -288.210      24.915

 6  7  8  9  10  11  12  13  14  15  16  26  30  31  32  33  35 0
 6-311+G(2d,p)
 ****
 37  38 0
 6-311+G(2d,p)
 ****
 1  2  3  4  5  17  18  19  20  21  22  23  24  25 0
 3-21G
 ****
 27  28  29  34  36  39  40  41  42  43  44  45  46 0
 3-21G
 ****


