%nproc=1
%NoSave
%Mem=1900MB
#P OB98/GEN NMR

erre ene a

0 1
  C      -80.027     262.922      -3.545
  O      -81.073     262.220      -2.900
  H      -79.359     263.330      -2.782
  H      -80.438     263.750      -4.132
  H      -79.457     262.250      -4.191
  P      -82.068     261.382      -3.849
  C      -81.644     258.869      -3.208
  O      -82.416     260.045      -3.028
  C      -81.862     257.901      -2.042
  O      -81.476     258.563      -0.811
  C      -83.311     257.434      -1.886
  O      -83.307     256.065      -1.470
  C      -83.850     258.314      -0.770
  O      -84.963     257.714      -0.107
  C      -82.596     258.517       0.095
  N      -82.674     259.729       0.913
  C      -83.530     259.688       2.019
  O      -84.192     258.678       2.258
  N      -83.651     260.810       2.802
  C      -83.024     261.902       2.474
  N      -83.203     262.982       3.284
  C      -82.152     262.002       1.286
  C      -82.015     260.891       0.565
  O      -81.074     260.881      -4.998
  O      -83.246     262.161      -4.338
  H      -85.364     258.390       0.489
  H      -80.212     260.584      -4.665
  H      -81.662     262.936       1.045
  H      -81.388     260.875      -0.319
  H      -82.448     257.658       0.764
  H      -84.187     259.275      -1.177
  H      -83.899     257.540      -2.797
  H      -81.182     257.051      -2.169
  H      -83.827     262.874       4.078
  H      -80.580     259.119      -3.281
  H      -82.810     263.894       3.094
  H      -81.951     258.403      -4.151
  P      -84.173     254.994      -2.292
  C      -82.778     254.934      -4.460
  O      -83.210     254.214      -3.315
  O      -85.448     255.506      -2.882
  O      -84.482     253.863      -1.186
  H      -85.398     253.546      -1.325
  H      -82.147     254.309      -5.057
  H      -82.232     255.801      -4.151
  H      -83.629     255.234      -5.035

 6  7  8  9  10  11  12  13  14  15  16  26  30  31  32  33  35 0
 6-311+G(2d,p)
 ****
 37  38 0
 6-311+G(2d,p)
 ****
 1  2  3  4  5  17  18  19  20  21  22  23  24  25 0
 3-21G
 ****
 27  28  29  34  36  39  40  41  42  43  44  45  46 0
 3-21G
 ****


