%nproc=1
%NoSave
%Mem=1900MB
#P OB98/GEN NMR

erre ene a

0 1
  C      529.286     261.728     303.038
  O      527.922     261.513     303.341
  H      529.665     262.588     303.603
  H      529.857     260.843     303.326
  H      529.414     261.903     301.967
  P      526.912     262.721     303.024
  C      525.946     264.676     304.451
  O      526.868     263.595     304.372
  C      525.378     264.752     305.864
  O      524.762     263.490     306.220
  C      526.426     265.014     306.936
  O      526.751     266.395     307.047
  C      525.706     264.513     308.174
  O      524.728     265.485     308.591
  C      525.010     263.256     307.636
  N      525.682     258.994     310.393
  C      524.759     259.976     310.461
  N      524.635     261.069     309.681
  C      525.589     261.081     308.735
  C      526.591     260.145     308.536
  C      526.624     259.058     309.422
  N      527.582     258.075     309.374
  N      527.398     260.517     307.476
  C      526.875     261.643     307.032
  N      525.801     262.043     307.779
  O      525.472     262.019     303.008
  O      527.196     263.506     301.788
  H      524.263     265.106     309.367
  H      524.809     262.614     302.605
  H      524.020     259.878     311.257
  H      527.245     262.210     306.184
  H      524.043     263.069     308.118
  H      526.377     264.350     309.019
  H      527.330     264.410     306.774
  H      524.594     265.521     305.879
  H      525.134     264.503     303.735
  H      527.608     257.419     310.141
  H      528.364     258.188     308.752
  H      526.455     265.606     304.199
  P      528.071     266.779     307.879
  C      528.506     267.738     310.263
  O      527.583     267.094     309.381
  O      528.448     268.223     307.303
  O      529.192     265.805     307.750
  H      529.412     268.359     307.311
  H      528.046     267.881     311.218
  H      528.786     268.687     309.856
  H      529.377     267.127     310.375

 6  7  8  9  10  11  12  13  14  15  25  28  32  33  34  35 0
 6-311+G(2d,p)
 ****
 36  39  40 0
 6-311+G(2d,p)
 ****
 1  2  3  4  5  16  17  18  19  20  21  22  23  24 0
 3-21G
 ****
 26  27  29  30  31  37  38  41  42  43  44  45  46  47 0
 3-21G
 ****
 48 0
 3-21G
 ****


