%nproc=1
%NoSave
%Mem=1900MB
#P OB98/GEN NMR

erre ene a

0 1
  C     -198.883    -640.709    -255.463
  O     -197.473    -640.651    -255.491
  P     -196.697    -640.289    -256.851
  C     -194.995    -638.921    -255.486
  O     -195.182    -639.963    -256.431
  C     -193.508    -638.664    -255.265
  O     -192.880    -639.782    -254.577
  C     -192.705    -638.521    -256.548
  O     -192.972    -637.398    -257.361
  C     -191.280    -638.679    -256.033
  O     -190.791    -637.461    -255.468
  C     -191.476    -639.747    -254.921
  N     -190.988    -641.064    -255.344
  C     -189.602    -641.224    -255.338
  O     -188.812    -640.332    -255.018
  N     -189.136    -642.443    -255.764
  C     -189.912    -643.472    -256.214
  O     -189.430    -644.528    -256.615
  C     -191.366    -643.241    -256.206
  C     -191.829    -642.063    -255.772
  O     -197.345    -639.236    -257.684
  O     -196.557    -641.709    -257.583
  H     -190.070    -637.689    -254.852
  H     -196.061    -642.376    -257.078
  H     -188.141    -642.570    -255.784
  H     -192.001    -644.048    -256.547
  H     -192.896    -641.868    -255.764
  H     -190.932    -639.452    -254.010
  H     -190.588    -638.974    -256.826
  H     -192.911    -639.402    -257.178
  H     -193.397    -637.791    -254.616
  H     -195.454    -639.218    -254.534
  H     -195.509    -638.014    -255.835
  P     -193.561    -637.510    -258.846
  C     -195.696    -636.040    -258.759
  O     -194.356    -636.150    -259.180
  O     -194.221    -638.799    -259.218
  O     -192.230    -637.339    -259.735
  H     -192.323    -637.838    -260.566
  H     -196.097    -635.079    -259.103
  H     -195.761    -636.067    -257.667
  H     -196.303    -636.841    -259.192
  H     -199.210    -640.963    -254.476
  H     -199.223    -641.452    -256.154
  H     -199.285    -639.756    -255.738

 3  4  5  6  7  8  9  10  11  12  13  23  28  29  30  31  32 0
 6-311+G(2d,p)
 ****
 33  34 0
 6-311+G(2d,p)
 ****
 1  2  14  15  16  17  18  19  20  21  22  24  25  26  27 0
 3-21G
 ****
 35  36  37  38  39  40  41  42  43  44  45 0
 3-21G
 ****


