%nproc=1
%NoSave
%Mem=1900MB
#P OB98/GEN NMR

erre ene a

0 1
  C       19.508     -59.336      53.361
  O       18.693     -59.143      54.509
  P       17.938     -60.428      55.110
  C       16.371     -62.199      54.035
  O       16.880     -60.870      53.989
  C       14.850     -62.193      53.915
  O       14.457     -61.812      52.582
  C       14.192     -63.542      54.167
  O       14.029     -63.811      55.549
  C       12.840     -63.330      53.505
  O       11.982     -62.572      54.378
  C       13.212     -62.495      52.275
  N       10.783     -64.778      48.400
  C       10.325     -64.118      49.484
  N       11.036     -63.547      50.479
  C       12.353     -63.744      50.294
  C       12.964     -64.429      49.257
  C       12.119     -64.955      48.266
  N       12.588     -65.601      47.145
  N       14.332     -64.420      49.411
  C       14.547     -63.737      50.513
  N       13.383     -63.297      51.079
  O       17.018     -59.801      56.260
  O       18.834     -61.500      55.628
  H       11.102     -62.542      53.954
  H       16.799     -60.484      56.922
  H        9.245     -64.029      49.560
  H       15.522     -63.527      50.931
  H       12.467     -61.724      52.053
  H       12.322     -64.268      53.285
  H       14.729     -64.349      53.652
  H       14.459     -61.440      54.611
  H       16.652     -62.656      54.989
  H       11.937     -65.784      46.398
  H       13.583     -65.554      46.951
  H       16.816     -62.780      53.222
  P       13.583     -65.301      55.949
  C       11.496     -66.753      55.418
  O       12.201     -65.550      55.181
  O       13.155     -65.152      57.483
  O       14.647     -66.328      55.753
  H       13.249     -66.005      57.948
  H       10.465     -66.629      55.077
  H       11.483     -67.001      56.482
  H       11.957     -67.571      54.855
  H       19.945     -58.403      53.073
  H       18.910     -59.713      52.558
  H       20.283     -60.038      53.588

 3  4  5  6  7  8  9  10  11  12  22  25  29  30  31  32 0
 6-311+G(2d,p)
 ****
 33  36  37 0
 6-311+G(2d,p)
 ****
 1  2  13  14  15  16  17  18  19  20  21  23  24  26 0
 3-21G
 ****
 27  28  34  35  38  39  40  41  42  43  44  45  46  47  48 0
 3-21G
 ****


