%nproc=1
%NoSave
%Mem=1900MB
#P OB98/GEN NMR

erre ene a

0 1
  C     -277.779     301.418     578.997
  O     -277.130     300.860     580.136
  P     -277.156     299.249     580.262
  C     -274.595     298.799     580.066
  O     -275.741     298.810     580.895
  C     -273.330     299.047     580.888
  O     -273.197     300.443     581.241
  C     -273.291     298.289     582.213
  O     -272.919     296.936     582.043
  C     -272.212     299.063     582.958
  O     -270.911     298.586     582.572
  C     -272.434     300.503     582.462
  N     -272.211     302.947     586.908
  C     -271.253     302.192     586.260
  N     -270.044     302.096     586.876
  N     -271.449     301.589     585.123
  C     -272.688     301.789     584.603
  C     -273.723     302.511     585.150
  C     -273.506     303.151     586.434
  O     -274.334     303.799     587.069
  N     -274.824     302.501     584.339
  C     -274.451     301.793     583.288
  N     -273.160     301.329     583.404
  O     -277.036     298.773     578.742
  O     -278.373     298.705     580.928
  H     -270.784     297.720     583.018
  H     -277.445     297.896     578.630
  H     -272.007     303.385     587.791
  H     -275.064     301.601     582.417
  H     -271.480     300.998     582.233
  H     -272.275     298.948     584.043
  H     -269.805     302.593     587.725
  H     -274.253     298.388     582.751
  H     -269.315     301.589     586.407
  H     -272.460     298.752     580.268
  H     -274.682     299.583     579.303
  H     -274.542     297.844     579.537
  P     -273.033     295.976     583.332
  C     -275.035     294.618     582.398
  O     -273.689     294.623     582.801
  O     -274.191     296.661     584.195
  O     -271.756     295.833     584.102
  H     -274.067     296.475     585.149
  H     -275.276     295.520     581.806
  H     -275.685     294.596     583.278
  H     -275.245     293.740     581.784
  H     -277.695     302.484     579.025
  H     -278.813     301.142     579.004
  H     -277.317     301.047     578.106

 3  4  5  6  7  8  9  10  11  12  23  26  30  31  33  0
 6-311+G(2d,p)
 ****
 35  36  37  38 0
 6-311+G(2d,p)
 ****
 1  2  13  14  15  16  17  18  19  20  21  22  24  25  27  28  29 0
 3-21G
 ****
 32  34  39  40  41  42  43  44  45  46  47  48  49 0
 3-21G
 ****


