%nproc=1
%NoSave
%Mem=1900MB
#P OB98/GEN NMR

erre ene a

0 1
  C       86.095     -42.686      88.779
  O       87.013     -43.784      88.673
  P       87.712     -44.221      87.296
  C       89.090     -42.742      85.679
  O       88.929     -43.212      87.012
  C       90.013     -41.520      85.642
  O       89.464     -40.451      86.450
  C       91.405     -41.739      86.213
  O       92.227     -42.509      85.355
  C       91.877     -40.300      86.410
  O       92.423     -39.758      85.199
  C       90.567     -39.572      86.769
  N       90.514     -39.149      88.158
  C       90.681     -37.784      88.406
  O       90.942     -37.011      87.485
  N       90.563     -37.333      89.698
  C       90.402     -38.180      90.665
  N       90.274     -37.674      91.921
  C       90.358     -39.640      90.460
  C       90.417     -40.051      89.195
  O       86.764     -44.353      86.150
  O       88.433     -45.614      87.611
  H       88.513     -46.134      86.790
  H       92.977     -40.458      84.802
  H       90.265     -40.314      91.299
  H       90.377     -41.108      88.953
  H       90.433     -38.696      86.122
  H       92.654     -40.222      87.177
  H       91.322     -42.231      87.191
  H       90.077     -41.173      84.602
  H       90.298     -36.667      92.026
  H       88.106     -42.453      85.292
  H       90.122     -38.245      92.740
  H       89.485     -43.550      85.056
  P       92.341     -44.077      85.673
  C       91.302     -46.242      84.687
  O       91.231     -44.834      84.801
  O       91.797     -44.199      87.175
  O       93.722     -44.634      85.550
  H       92.330     -44.853      87.664
  H       90.295     -46.630      84.516
  H       91.711     -46.701      85.591
  H       91.931     -46.502      83.832
  H       85.766     -42.593      89.793
  H       85.251     -42.864      88.145
  H       86.583     -41.783      88.478

 3  4  5  6  7  8  9  10  11  12  13  24  27  28  29  30  32 0
 6-311+G(2d,p)
 ****
 34  35 0
 6-311+G(2d,p)
 ****
 1  2  14  15  16  17  18  19  20  21  22  23  25  26 0
 3-21G
 ****
 31  33  36  37  38  39  40  41  42  43  44  45  46 0
 3-21G
 ****


