%nproc=1
%NoSave
%Mem=1900MB
#P OB98/GEN NMR

erre ene a

0 1
  C      225.983     176.588    -895.880
  O      225.816     175.819    -894.710
  H      227.013     176.963    -895.920
  H      225.302     177.434    -895.890
  H      225.801     175.956    -896.770
  P      224.374     175.141    -894.500
  C      224.793     173.008    -893.060
  O      224.643     173.563    -894.350
  C      224.980     171.490    -893.140
  O      223.851     170.923    -893.890
  C      226.264     171.066    -893.880
  O      226.719     169.813    -893.350
  C      225.737     170.848    -895.310
  O      226.663     170.107    -896.060
  C      224.419     170.177    -894.990
  N      221.452     167.245    -897.920
  C      222.159     166.969    -896.810
  N      222.910     167.818    -896.070
  C      222.866     169.061    -896.590
  C      222.202     169.483    -897.720
  C      221.449     168.493    -898.410
  N      220.742     168.771    -899.560
  N      222.396     170.834    -897.950
  C      223.218     171.214    -896.950
  N      223.512     170.165    -896.110
  O      223.694     175.275    -895.940
  O      223.524     175.747    -893.420
  H      227.471     170.633    -896.240
  H      223.168     176.110    -895.980
  H      222.102     165.946    -896.450
  H      223.588     172.223    -896.810
  H      224.539     169.128    -894.650
  H      225.585     171.810    -895.830
  H      227.071     171.808    -893.820
  H      224.955     171.055    -892.120
  H      223.893     173.240    -892.450
  H      225.675     173.458    -892.570
  H      220.256     168.002    -900.000
  H      220.768     169.702    -899.950
  P      227.332     169.760    -891.880
  C      225.259     168.702    -890.700
  O      226.151     169.805    -890.760
  O      227.951     171.249    -891.730
  O      228.388     168.735    -891.650
  H      228.852     171.204    -891.340
  H      224.541     168.866    -889.924
  H      225.810     167.809    -890.493
  H      224.754     168.600    -891.638

 6  7  8  9  10  11  12  13  14  15  25  28  32  33  34  35 0
 6-311+G(2d,p)
 ****
 36  37  40 0
 6-311+G(2d,p)
 ****
 1  2  3  4  5  16  17  18  19  20  21  22  23  24 0
 3-21G
 ****
 26  27  29  30  31  38  39 41  42  43  44  45  46  47  48 0
 3-21G
 ****


