%nproc=1
%NoSave
%Mem=1900MB
#P OB98/GEN NMR

erre ene a

0 1
  C      689.868    1153.706    -412.912
  O      690.423    1155.000    -413.189
  P      691.093    1155.754    -411.940
  C      693.568    1156.125    -412.648
  O      692.657    1155.331    -411.908
  C      694.943    1155.454    -412.728
  O      695.477    1155.205    -411.388
  C      694.937    1154.107    -413.460
  O      696.182    1153.988    -414.167
  C      694.876    1153.128    -412.298
  O      695.224    1151.787    -412.683
  C      695.832    1153.824    -411.335
  N      697.619    1150.322    -408.059
  C      697.898    1150.585    -409.360
  N      697.385    1151.524    -410.173
  C      696.468    1152.269    -409.503
  C      696.085    1152.123    -408.161
  C      696.698    1151.097    -407.429
  N      696.401    1150.836    -406.104
  N      695.101    1153.064    -407.852
  C      694.867    1153.694    -408.984
  N      695.724    1153.319    -409.967
  O      690.474    1154.986    -410.683
  O      690.834    1157.207    -411.914
  H      694.718    1151.559    -413.465
  H      689.747    1155.504    -410.306
  H      698.657    1149.940    -409.808
  H      694.104    1154.427    -409.153
  H      696.883    1153.710    -411.630
  H      693.863    1153.074    -411.913
  H      694.105    1153.995    -414.184
  H      695.638    1156.162    -413.245
  H      693.671    1157.110    -412.182
  H      696.900    1150.075    -405.676
  H      695.719    1151.377    -405.633
  H      693.167    1156.310    -413.648
  P      696.143    1153.947    -415.770
  C      698.529    1154.878    -415.719
  O      697.214    1155.033    -416.240
  O      694.752    1154.714    -416.077
  O      696.211    1152.570    -416.380
  H      694.733    1155.536    -415.601
  H      699.184    1155.629    -416.182
  H      698.925    1153.875    -415.969
  H      698.521    1155.025    -414.635
  H      689.451    1153.297    -413.809
  H      689.101    1153.798    -412.172
  H      690.638    1153.058    -412.549

 3  4  5  6  7  8  9  10  11  12  22  25  29  30  31  32 0
 6-311+G(2d,p)
 ****
 33  36  37 0
 6-311+G(2d,p)
 ****
 1  2  13  14  15  16  17  18  19  20  21  23  24  26 0
 3-21G
 ****
 27  28  34  35  38  39  40  41  42  43  44  45  46  47  48 0
 3-21G
 ****


