%nproc=1
%NoSave
%Mem=1900MB
#P OB98/GEN NMR

erre ene a

0 1
  C      -97.373     600.488     432.780
  O      -97.162     600.188     431.405
  P      -95.686     600.347     430.800
  C      -94.806     597.848     430.867
  O      -95.224     598.972     430.122
  C      -93.548     597.256     430.218
  O      -92.892     596.348     431.137
  C      -93.843     596.465     428.943
  O      -93.876     597.301     427.796
  C      -92.704     595.461     428.928
  O      -91.496     596.082     428.470
  C      -92.597     595.109     430.430
  N      -93.475     594.041     430.961
  C      -92.915     592.849     431.416
  O      -91.714     592.595     431.398
  N      -93.795     591.922     431.907
  C      -95.125     592.115     432.156
  O      -95.848     591.272     432.658
  C      -95.637     593.448     431.796
  C      -94.805     594.325     431.222
  O      -94.759     600.463     432.092
  O      -95.517     601.513     429.880
  H      -90.798     595.411     428.488
  H      -94.339     601.345     432.132
  H      -93.415     591.019     432.165
  H      -96.673     593.661     432.022
  H      -95.178     595.313     430.954
  H      -91.565     594.826     430.685
  H      -92.912     594.646     428.239
  H      -94.778     595.911     429.044
  H      -92.852     598.075     429.996
  H      -95.598     597.097     430.913
  H      -94.595     598.144     431.899
  P      -95.241     597.487     426.990
  C      -96.540     599.475     427.956
  O      -95.559     599.060     427.028
  O      -96.367     596.585     427.378
  O      -94.797     597.266     425.461
  H      -94.964     596.335     425.178
  H      -96.550     600.565     428.004
  H      -96.310     599.081     428.953
  H      -97.524     599.124     427.636
  H      -98.403     600.333     433.025
  H      -97.112     601.509     432.966
  H      -96.763     599.848     433.382

 3  4  5  6  7  8  9  10  11  12  13  23  28  29  30  31  32 0
 6-311+G(2d,p)
 ****
 33  34 0
 6-311+G(2d,p)
 ****
 1  2  14  15  16  17  18  19  20  21  22  24  25  26  27 0
 3-21G
 ****
 35  36  37  38  39  40  41  42  43  44  45 0
 3-21G
 ****


