%nproc=1
%NoSave
%Mem=1900MB
#P OB98/GEN NMR

erre ene a

0 1
  C      -65.658     318.024     -96.057
  O      -65.954     317.373     -94.840
  H      -66.337     318.872     -96.177
  H      -65.813     317.333     -96.889
  H      -64.628     318.392     -96.063
  P      -64.893     316.295     -94.311
  C      -66.048     314.005     -94.679
  O      -65.114     314.955     -95.170
  C      -66.691     313.244     -95.839
  O      -65.640     312.706     -96.683
  C      -67.576     312.073     -95.395
  O      -68.719     312.007     -96.253
  C      -66.695     310.858     -95.623
  O      -67.450     309.664     -95.827
  C      -65.884     311.295     -96.836
  N      -63.877     306.783     -97.842
  C      -65.186     307.218     -97.927
  N      -66.101     306.312     -98.336
  N      -65.565     308.435     -97.638
  C      -64.538     309.242     -97.278
  C      -63.206     308.932     -97.149
  C      -62.803     307.574     -97.446
  O      -61.665     307.123     -97.366
  N      -62.481     310.019     -96.727
  C      -63.375     310.981     -96.602
  N      -64.634     310.562     -96.931
  O      -65.456     315.910     -92.863
  O      -63.480     316.770     -94.237
  H      -66.812     308.923     -95.909
  H      -64.820     316.189     -92.177
  H      -63.642     305.832     -98.064
  H      -63.166     311.989     -96.270
  H      -66.424     311.140     -97.778
  H      -66.047     310.704     -94.752
  H      -65.872     305.374     -98.622
  H      -67.905     312.154     -94.358
  H      -67.060     306.618     -98.443
  H      -67.257     313.954     -96.451
  H      -66.824     314.529     -94.113
  H      -65.535     313.303     -94.014
  P      -70.136     312.399     -95.608
  C      -70.723     310.166     -94.432
  O      -70.344     311.525     -94.276
  O      -71.190     311.773     -96.638
  O      -70.339     313.868     -95.445
  H      -71.619     312.484     -97.147
  H      -70.824     309.711     -93.469
  H      -69.973     309.649     -94.993
  H      -71.657     310.114     -94.951

 6  7  8  9  10  11  12  13  14  15  26  29  33  34 0
 6-311+G(2d,p)
 ****
 36  38  39  40  41 0
 6-311+G(2d,p)
 ****
 1  2  3  4  5  16  17  18  19  20  21  22  23  24  25 0
 3-21G
 ****
 27  28  30  31  32  35  37  42  43  44  45  46  47 0
 3-21G
 ****
 48  49 0
 3-21G
 ****


