%nproc=1
%NoSave
%Mem=1900MB
#P OB98/GEN NMR

erre ene a

0 1
  C       90.949      26.962    -307.447
  O       92.314      27.237    -307.200
  H       90.438      27.904    -307.666
  H       90.485      26.505    -306.570
  H       90.844      26.302    -308.314
  P       93.282      26.027    -306.790
  C       95.525      25.224    -307.790
  O       94.721      26.346    -307.432
  C       96.256      25.499    -309.111
  O       95.304      25.318    -310.186
  C       96.809      26.931    -309.192
  O       98.202      26.978    -309.518
  C       95.839      27.630    -310.139
  O       96.386      28.727    -310.839
  C       95.344      26.483    -311.033
  N       94.036      26.730    -311.638
  C       94.009      27.455    -312.829
  O       95.002      27.883    -313.421
  N       92.761      27.681    -313.355
  C       91.576      27.273    -312.820
  O       90.488      27.500    -313.342
  C       91.666      26.530    -311.552
  C       92.875      26.297    -311.027
  O       92.760      24.657    -307.068
  O       93.535      26.252    -305.223
  H       95.813      28.900    -311.618
  H       92.989      25.625    -304.711
  H       92.730      28.194    -314.222
  H       90.745      26.198    -311.094
  H       92.979      25.752    -310.090
  H       96.056      26.294    -311.839
  H       94.998      28.010    -309.546
  H       96.767      27.422    -308.211
  H       97.049      24.749    -309.239
  H       94.867      24.355    -307.890
  H       96.256      25.028    -306.996
  P       99.293      27.831    -308.721
  C      101.818      27.278    -308.257
  O      100.744      27.339    -309.188
  O       99.063      27.966    -307.254
  O       99.165      29.300    -309.378
  H       99.366      29.943    -308.664
  H      102.700      26.929    -308.752
  H      101.565      26.606    -307.464
  H      101.997      28.253    -307.855

 6  7  8  9  10  11  12  13  14  15  16  26  31  32  33  34  35 0
 6-311+G(2d,p)
 ****
 36  37 0
 6-311+G(2d,p)
 ****
 1  2  3  4  5  17  18  19  20  21  22  23  24  25 0
 3-21G
 ****
 27  28  29  30  38  39  40  41  42  43  44  45 0
 3-21G
 ****


