%nproc=1
%NoSave
%Mem=1900MB
#P OB98/GEN NMR

erre ene a

0 1
  C      370.622    -147.183     354.106
  O      369.346    -147.726     353.852
  H      370.569    -146.557     355.001
  H      370.946    -146.561     353.265
  H      371.355    -147.980     354.283
  P      369.186    -148.817     352.690
  C      369.716    -148.790     350.165
  O      369.298    -148.031     351.293
  C      369.859    -147.876     348.954
  O      371.099    -147.136     349.026
  C      369.896    -148.618     347.621
  O      368.615    -149.075     347.236
  C      370.505    -147.557     346.718
  O      369.506    -146.634     346.271
  C      371.506    -146.858     347.663
  N      372.886    -147.302     347.423
  C      373.670    -146.461     346.643
  O      373.270    -145.399     346.174
  N      374.928    -146.914     346.361
  C      375.413    -148.160     346.660
  O      376.447    -148.615     346.183
  C      374.566    -148.975     347.538
  C      373.350    -148.527     347.869
  O      368.011    -149.728     352.812
  O      370.566    -149.632     352.750
  H      370.418    -150.483     353.208
  H      369.230    -146.130     347.067
  H      375.494    -146.328     345.762
  H      374.938    -149.945     347.861
  H      372.693    -149.125     348.483
  H      371.460    -145.771     347.539
  H      370.971    -147.999     345.833
  H      370.597    -149.465     347.693
  H      369.034    -147.148     348.965
  H      368.968    -149.559     349.962
  H      370.671    -149.277     350.396
  P      368.466    -150.370     346.300
  C      369.933    -151.476     344.500
  O      369.541    -150.248     345.111
  O      367.076    -150.679     345.854
  O      369.056    -151.561     347.187
  H      368.411    -152.306     347.186
  H      370.646    -151.278     343.727
  H      369.074    -151.955     344.078
  H      370.373    -152.116     345.236

 6  7  8  9  10  11  12  13  14  15  16  27  31  32  33  34  35 0
 6-311+G(2d,p)
 ****
 36  37 0
 6-311+G(2d,p)
 ****
 1  2  3  4  5  17  18  19  20  21  22  23  24  25 0
 3-21G
 ****
 26  28  29  30  38  39  40  41  42  43  44  45 0
 3-21G
 ****


