%nproc=1
%NoSave
%Mem=1900MB
#P OB98/GEN NMR

erre ene a

0 1
  C     -174.845    -431.565     201.389
  O     -174.195    -431.759     202.627
  H     -174.157    -431.841     200.587
  H     -175.114    -430.513     201.272
  H     -175.741    -432.187     201.310
  P     -175.062    -431.709     203.975
  C     -175.975    -434.092     204.353
  O     -174.941    -433.163     204.644
  C     -176.038    -435.191     205.416
  O     -177.175    -436.055     205.133
  C     -174.786    -436.082     205.468
  O     -174.625    -436.519     206.824
  C     -175.201    -437.245     204.586
  O     -174.380    -438.372     204.793
  C     -176.672    -437.396     204.985
  N     -177.440    -438.172     204.009
  C     -177.766    -439.470     204.369
  O     -177.415    -439.989     205.433
  N     -178.478    -440.188     203.447
  C     -178.828    -439.759     202.202
  O     -179.441    -440.456     201.401
  C     -178.415    -438.389     201.857
  C     -177.752    -437.668     202.763
  O     -176.460    -431.205     203.827
  O     -174.198    -430.798     204.968
  H     -173.459    -438.182     204.502
  H     -174.788    -430.320     205.582
  H     -178.733    -441.132     203.698
  H     -178.670    -438.021     200.873
  H     -177.435    -436.652     202.542
  H     -176.756    -437.898     205.958
  H     -175.119    -436.975     203.528
  H     -173.882    -435.579     205.116
  H     -176.228    -434.727     206.390
  H     -175.765    -434.536     203.373
  H     -176.934    -433.566     204.304
  P     -173.181    -436.730     207.484
  C     -173.045    -434.256     208.201
  O     -172.962    -435.616     208.623
  O     -172.060    -436.821     206.496
  O     -173.307    -438.092     208.320
  H     -172.436    -438.522     208.380
  H     -172.884    -433.612     209.040
  H     -174.015    -434.069     207.789
  H     -172.299    -434.067     207.457

 6  7  8  9  10  11  12  13  14  15  16  26  31  32  33  34  35 0
 6-311+G(2d,p)
 ****
 36  37 0
 6-311+G(2d,p)
 ****
 1  2  3  4  5  17  18  19  20  21  22  23  24  25 0
 3-21G
 ****
 27  28  29  30  38  39  40  41  42  43  44  45 0
 3-21G
 ****


