%nproc=1
%NoSave
%Mem=1900MB
#P OB98/GEN NMR

erre ene a

0 1
  C      -11.114      96.808     105.596
  O      -12.475      96.740     106.041
  P      -13.566      95.780     105.365
  C      -14.379      94.683     107.553
  O      -14.730      95.474     106.421
  C      -15.612      94.042     108.199
  O      -16.415      95.040     108.856
  C      -16.551      93.341     107.228
  O      -16.025      92.090     106.820
  C      -17.826      93.257     108.061
  O      -17.785      92.136     108.959
  C      -17.782      94.586     108.843
  N      -18.675      95.593     108.283
  C      -20.020      95.512     108.656
  O      -20.415      94.591     109.374
  N      -20.891      96.464     108.183
  C      -20.470      97.368     107.354
  N      -21.376      98.288     106.926
  C      -19.081      97.433     106.865
  C      -18.247      96.525     107.368
  O      -12.987      94.558     104.726
  O      -14.293      96.689     104.264
  H      -18.677      92.063     109.351
  H      -14.581      96.124     103.523
  H      -18.778      98.185     106.154
  H      -17.205      96.508     107.070
  H      -18.057      94.421     109.892
  H      -18.723      93.145     107.446
  H      -16.729      93.982     106.356
  H      -15.259      93.338     108.966
  H      -22.320      98.220     107.285
  H      -13.884      95.332     108.284
  H      -21.152      99.033     106.283
  H      -13.672      93.909     107.236
  P      -15.347      91.945     105.378
  C      -13.988      90.000     106.358
  O      -14.762      90.458     105.265
  O      -14.397      93.032     104.998
  O      -16.597      91.905     104.374
  H      -16.335      92.306     103.525
  H      -13.994      88.907     106.360
  H      -14.394      90.361     107.308
  H      -12.958      90.350     106.245
  H      -10.578      97.514     106.195
  H      -11.089      97.117     104.572
  H      -10.660      95.844     105.689

 3  4  5  6  7  8  9  10  11  12  13  23  27  28  29  30  32 0
 6-311+G(2d,p)
 ****
 34  35 0
 6-311+G(2d,p)
 ****
 1  2  14  15  16  17  18  19  20  21  22  24  25  26 0
 3-21G
 ****
 31  33  36  37  38  39  40  41  42  43  44  45  46 0
 3-21G
 ****


