%nproc=1
%NoSave
%Mem=1900MB
#P OB98/GEN NMR

erre ene a

0 1
  C     1930.673    1734.422    -898.170
  O     1931.055    1733.176    -897.650
  P     1931.622    1732.090    -898.660
  C     1932.271    1730.667    -896.540
  O     1931.631    1730.711    -897.790
  C     1932.763    1729.273    -896.240
  O     1933.464    1728.754    -897.430
  C     1933.716    1729.168    -895.090
  O     1933.070    1729.174    -893.820
  C     1934.459    1727.853    -895.390
  O     1933.710    1726.698    -894.850
  C     1934.413    1727.795    -896.920
  N     1935.747    1727.996    -897.540
  C     1936.629    1726.918    -897.450
  O     1936.275    1725.855    -896.930
  N     1937.864    1727.029    -897.950
  C     1938.246    1728.175    -898.470
  N     1939.514    1728.277    -898.950
  C     1937.354    1729.365    -898.520
  C     1936.136    1729.189    -898.030
  O     1933.208    1732.471    -898.720
  O     1930.990    1732.028    -900.000
  H     1933.720    1726.811    -893.890
  H     1933.610    1732.194    -899.550
  H     1937.717    1730.311    -898.990
  H     1935.423    1729.989    -898.050
  H     1934.062    1726.804    -897.260
  H     1935.454    1727.781    -894.940
  H     1934.501    1730.002    -895.140
  H     1931.923    1728.592    -896.110
  H     1940.120    1727.435    -898.880
  H     1931.483    1730.875    -895.750
  H     1939.912    1729.123    -899.440
  H     1933.064    1731.394    -896.450
  P     1933.972    1729.403    -892.510
  C     1931.741    1729.769    -891.380
  O     1932.938    1729.178    -891.300
  O     1934.174    1730.997    -892.450
  O     1935.303    1728.689    -892.440
  H     1934.791    1731.290    -891.770
  H     1931.023    1729.444    -890.630
  H     1931.247    1729.570    -892.360
  H     1931.748    1730.879    -891.260
  H     1930.314    1735.044    -897.377
  H     1929.898    1734.284    -898.894
  H     1931.516    1734.888    -898.635

 3  4  5  6  7  8  9  10  11  12  13  21  23  27  28  29  30  32 0
 6-311+G(2d,p)
 ****
 34  35 0
 6-311+G(2d,p)
 ****
 1  2  14  15  16  17  18  19  20  22  24  25  26 0
 3-21G
 ****
 31  33  36  37  38  39  40  41  42  43  44  45  46 0
 3-21G
 ****


