%nproc=1
%NoSave
%Mem=1900MB
#P OB98/GEN NMR

erre ene a

0 1
  C      274.563    -664.881      -1.322
  O      275.229    -664.703      -0.093
  H      273.734    -665.577      -1.179
  H      275.247    -665.300      -2.063
  H      274.160    -663.926      -1.687
  P      276.361    -663.563      -0.039
  C      278.661    -663.270      -1.208
  O      277.659    -664.175      -0.755
  C      280.051    -663.809      -0.879
  O      280.192    -665.160      -1.380
  C      281.195    -662.999      -1.486
  O      281.511    -661.859      -0.704
  C      282.314    -664.031      -1.448
  O      282.822    -664.140      -0.104
  C      281.573    -665.317      -1.828
  N      283.785    -667.955      -5.561
  C      284.076    -667.915      -4.205
  N      285.105    -668.676      -3.783
  N      283.411    -667.182      -3.340
  C      282.410    -666.463      -3.903
  C      282.036    -666.420      -5.231
  C      282.767    -667.234      -6.171
  O      282.543    -667.326      -7.375
  N      280.964    -665.585      -5.418
  C      280.720    -665.098      -4.217
  N      281.572    -665.593      -3.264
  O      276.770    -663.521       1.511
  O      275.929    -662.220      -0.527
  H      283.321    -663.322       0.072
  H      276.969    -662.599       1.753
  H      284.339    -668.521      -6.179
  H      279.929    -664.391      -3.984
  H      281.981    -666.203      -1.335
  H      283.148    -663.765      -2.091
  H      285.683    -669.217      -4.405
  H      280.984    -662.729      -2.525
  H      285.314    -668.686      -2.785
  H      280.144    -663.854       0.208
  H      278.518    -662.302      -0.716
  H      278.549    -663.140      -2.288
  P      282.178    -660.605      -1.453
  C      284.564    -660.072      -2.341
  O      283.696    -661.033      -1.736
  O      282.312    -659.521      -0.283
  O      281.415    -660.083      -2.621
  H      282.359    -658.618      -0.666
  H      285.537    -660.499      -2.466
  H      284.632    -659.208      -1.714
  H      284.173    -659.790      -3.296

 6  7  8  9  10  11  12  13  14  15  26  29  33  34 0
 6-311+G(2d,p)
 ****
 36  38  39  40  41 0
 6-311+G(2d,p)
 ****
 1  2  3  4  5  16  17  18  19  20  21  22  23  24  25 0
 3-21G
 ****
 27  28  30  31  32  35  37  42  43  44  45  46  47 0
 3-21G
 ****
 48  49 0
 3-21G
 ****


