%nproc=1
%NoSave
%Mem=1900MB
#P OB98/GEN NMR

erre ene a

0 1
  C       68.397      51.722       8.561
  O       69.536      51.595       7.728
  P       69.424      51.802       6.147
  C       68.185      50.562       4.192
  O       68.623      50.566       5.533
  C       68.422      49.168       3.597
  O       69.815      48.997       3.267
  C       68.031      48.065       4.577
  O       66.703      47.628       4.336
  C       69.076      47.000       4.312
  O       68.717      46.219       3.157
  C       70.327      47.858       4.010
  N       71.110      48.372       5.150
  C       71.603      47.484       6.102
  O       71.453      46.267       6.042
  N       72.266      48.054       7.160
  C       72.513      49.386       7.322
  O       72.885      49.900       8.370
  C       72.212      50.230       6.162
  C       71.515      49.699       5.157
  O       70.922      51.557       5.644
  O       68.895      53.127       5.709
  H       69.489      45.673       2.928
  H       71.381      52.407       5.504
  H       72.504      47.429       7.923
  H       72.517      51.267       6.188
  H       71.246      50.316       4.303
  H       71.024      47.321       3.356
  H       69.146      46.299       5.142
  H       68.146      48.418       5.611
  H       67.842      49.076       2.669
  H       68.729      51.319       3.617
  H       67.122      50.820       4.142
  P       65.732      47.330       5.572
  C       65.802      45.652       7.507
  O       66.268      45.959       6.209
  O       64.271      47.368       5.268
  O       66.145      48.450       6.642
  H       65.520      49.202       6.593
  H       66.090      44.626       7.750
  H       64.712      45.737       7.555
  H       66.260      46.328       8.234
  H       68.678      51.548       9.579
  H       67.659      51.006       8.267
  H       67.994      52.709       8.466

 3  4  5  6  7  8  9  10  11  12  13  23  28  29  30  31  32 0
 6-311+G(2d,p)
 ****
 33  34 0
 6-311+G(2d,p)
 ****
 1  2  14  15  16  17  18  19  20  21  22  24  25  26  27 0
 3-21G
 ****
 35  36  37  38  39  40  41  42  43  44  45 0
 3-21G
 ****


