%nproc=1
%NoSave
%Mem=1900MB
#P OB98/GEN NMR

erre ene a

0 1
  C      -70.965     -82.124     -35.927
  O      -70.164     -82.711     -34.922
  H      -70.849     -82.700     -36.850
  H      -70.643     -81.097     -36.111
  H      -72.017     -82.139     -35.630
  P      -70.186     -82.011     -33.479
  C      -69.423     -83.941     -31.923
  O      -69.056     -82.751     -32.606
  C      -69.282     -85.151     -32.848
  O      -67.884     -85.297     -33.223
  C      -69.732     -86.473     -32.212
  O      -70.378     -87.269     -33.210
  C      -68.419     -87.134     -31.829
  O      -68.541     -88.547     -31.711
  C      -67.525     -86.670     -32.975
  N      -63.096     -88.248     -34.765
  C      -64.342     -88.209     -35.361
  N      -64.426     -88.666     -36.629
  N      -65.415     -87.765     -34.763
  C      -65.182     -87.317     -33.506
  C      -64.003     -87.310     -32.802
  C      -62.825     -87.826     -33.467
  O      -61.700     -87.908     -32.984
  N      -64.185     -86.806     -31.537
  C      -65.471     -86.508     -31.481
  N      -66.116     -86.797     -32.653
  O      -71.552     -82.537     -32.830
  O      -70.101     -80.522     -33.484
  H      -69.098     -88.735     -30.926
  H      -71.920     -81.876     -32.212
  H      -62.305     -88.611     -35.267
  H      -65.980     -86.087     -30.624
  H      -67.695     -87.243     -33.896
  H      -68.063     -86.738     -30.870
  H      -63.636     -88.992     -37.164
  H      -70.399     -86.343     -31.357
  H      -65.328     -88.634     -37.091
  H      -69.836     -84.951     -33.773
  H      -70.463     -83.856     -31.592
  H      -68.777     -84.067     -31.049
  P      -71.908     -86.932     -33.552
  C      -71.850     -87.161     -36.136
  O      -72.313     -87.694     -34.905
  O      -71.845     -85.394     -33.997
  O      -72.841     -87.124     -32.403
  H      -72.243     -84.836     -33.306
  H      -72.198     -87.772     -36.943
  H      -70.780     -87.144     -36.137
  H      -72.223     -86.165     -36.256

 6  7  8  9  10  11  12  13  14  15  26  29  33  34 0
 6-311+G(2d,p)
 ****
 36  38  39  40  41 0
 6-311+G(2d,p)
 ****
 1  2  3  4  5  16  17  18  19  20  21  22  23  24  25 0
 3-21G
 ****
 27  28  30  31  32  35  37  42  43  44  45  46  47 0
 3-21G
 ****
 48  49 0
 3-21G
 ****


