%nproc=1
%NoSave
%Mem=1900MB
#P OB98/GEN NMR

erre ene a

0 1
  C      783.006     181.693    -858.988
  O      782.690     181.766    -860.382
  P      783.334     180.652    -861.341
  C      785.767     179.716    -861.544
  O      784.928     180.825    -861.224
  C      787.183     179.945    -861.019
  O      787.180     179.952    -859.578
  C      788.188     178.867    -861.424
  O      788.686     179.051    -862.737
  C      789.262     179.086    -860.407
  O      790.087     180.204    -860.775
  C      788.460     179.418    -859.151
  N      790.661     176.133    -855.908
  C      791.185     177.118    -856.655
  N      790.523     177.953    -857.493
  C      789.219     177.641    -857.555
  C      788.573     176.639    -856.865
  C      789.340     175.849    -855.996
  N      788.821     174.843    -855.207
  N      787.215     176.601    -857.187
  C      787.062     177.629    -858.039
  N      788.234     178.250    -858.282
  O      783.013     181.212    -862.814
  O      782.814     179.260    -861.130
  H      790.181     180.190    -861.747
  H      783.022     180.474    -863.454
  H      792.242     177.296    -856.550
  H      786.114     177.884    -858.498
  H      788.938     180.195    -858.534
  H      789.924     178.212    -860.291
  H      787.752     177.862    -861.299
  H      787.532     180.936    -861.378
  H      785.791     179.629    -862.640
  H      789.391     174.479    -854.472
  H      787.799     174.793    -855.118
  H      785.325     178.809    -861.116
  P      789.538     177.867    -863.381
  C      791.968     176.979    -863.035
  O      790.927     177.869    -862.591
  O      789.932     178.424    -864.837
  O      788.801     176.566    -863.446
  H      790.074     177.681    -865.445
  H      792.923     177.317    -862.586
  H      792.042     176.986    -864.108
  H      791.760     175.969    -862.684
  H      782.515     182.489    -858.469
  H      784.064     181.781    -858.857
  H      782.675     180.754    -858.596

 3  4  5  6  7  8  9  10  11  12  22  25  29  30  31  32 0
 6-311+G(2d,p)
 ****
 33  36  37 0
 6-311+G(2d,p)
 ****
 1  2  13  14  15  16  17  18  19  20  21  23  24  26 0
 3-21G
 ****
 27  28  34  35  38  39  40  41  42  43  44  45  46  47  48 0
 3-21G
 ****


