%nproc=1
%NoSave
%Mem=1900MB
#P OB98/GEN NMR

erre ene a

0 1
  C      -20.245     -14.289     285.155
  O      -20.422     -14.813     283.835
  P      -21.411     -16.067     283.666
  C      -22.949     -15.577     281.619
  O      -21.779     -16.221     282.114
  C      -23.403     -16.233     280.313
  O      -22.439     -16.027     279.263
  C      -23.554     -17.739     280.423
  O      -24.766     -18.070     281.078
  C      -23.506     -18.176     278.960
  O      -24.816     -18.191     278.369
  C      -22.623     -17.088     278.306
  N      -21.341     -17.608     277.840
  C      -21.327     -18.113     276.540
  O      -22.357     -18.125     275.860
  N      -20.147     -18.619     276.047
  C      -19.090     -18.642     276.799
  N      -17.951     -19.159     276.258
  C      -19.074     -18.139     278.191
  C      -20.224     -17.646     278.647
  O      -22.778     -15.541     284.319
  O      -20.925     -17.315     284.328
  H      -24.697     -18.539     277.463
  H      -23.256     -16.285     284.739
  H      -18.169     -18.185     278.782
  H      -20.308     -17.255     279.655
  H      -23.139     -16.644     277.445
  H      -23.097     -19.184     278.859
  H      -22.699     -18.166     280.964
  H      -24.358     -15.780     280.007
  H      -18.000     -19.492     275.305
  H      -22.752     -14.514     281.450
  H      -17.079     -19.229     276.756
  H      -23.733     -15.634     282.383
  P      -24.676     -18.936     282.427
  C      -27.114     -18.201     282.803
  O      -26.201     -19.281     282.801
  O      -24.318     -17.810     283.517
  O      -23.707     -20.067     282.455
  H      -24.137     -18.224     284.380
  H      -28.127     -18.597     282.866
  H      -27.015     -17.610     281.887
  H      -26.930     -17.566     283.678
  H      -19.566     -13.463     285.123
  H      -19.848     -15.052     285.791
  H      -21.189     -13.961     285.538

 3  4  5  6  7  8  9  10  11  12  13  21  23  27  28  29  30  32 0
 6-311+G(2d,p)
 ****
 34  35 0
 6-311+G(2d,p)
 ****
 1  2  14  15  16  17  18  19  20  22  24  25  26 0
 3-21G
 ****
 31  33  36  37  38  39  40  41  42  43  44  45  46 0
 3-21G
 ****


