%nproc=1
%NoSave
%Mem=1900MB
#P OB98/GEN NMR

erre ene a

0 1
  C      426.787    -897.750    -604.007
  O      425.426    -897.860    -604.405
  P      424.345    -898.630    -603.478
  C      422.412    -896.910    -603.271
  O      423.536    -897.540    -602.623
  C      422.612    -895.360    -603.315
  O      423.826    -895.020    -604.053
  C      421.487    -894.570    -603.998
  O      420.347    -894.510    -603.142
  C      422.171    -893.260    -604.294
  O      422.163    -892.410    -603.103
  C      423.599    -893.690    -604.628
  N      423.863    -893.690    -606.064
  C      424.179    -892.470    -606.644
  O      424.206    -891.440    -605.953
  N      424.472    -892.440    -607.961
  C      424.372    -893.500    -608.712
  N      424.674    -893.400    -610.049
  C      423.985    -894.810    -608.154
  C      423.708    -894.840    -606.818
  O      424.900    -899.730    -602.657
  O      423.251    -899.200    -604.515
  H      422.869    -891.740    -603.220
  H      422.862    -900.000    -604.158
  H      423.839    -895.700    -608.789
  H      423.404    -895.740    -606.361
  H      424.335    -893.020    -604.147
  H      421.663    -892.710    -605.088
  H      421.218    -895.070    -604.926
  H      422.759    -895.020    -602.289
  H      424.964    -892.490    -610.362
  H      421.482    -897.120    -602.742
  H      424.632    -894.180    -610.671
  H      422.347    -897.280    -604.304
  P      419.342    -895.780    -602.994
  C      419.419    -896.400    -600.520
  O      419.912    -896.710    -601.825
  O      419.038    -896.500    -604.304
  O      418.034    -895.120    -602.365
  H      417.246    -895.620    -602.680
  H      419.506    -897.330    -599.891
  H      418.321    -896.130    -600.534
  H      419.972    -895.590    -600.057
  H      427.334    -897.209    -604.751
  H      427.206    -898.728    -603.897
  H      426.845    -897.230    -603.074

 3  4  5  6  7  8  9  10  11  12  13  23  27  28  29  30  32 0
 6-311+G(2d,p)
 ****
 34  35 0
 6-311+G(2d,p)
 ****
 1  2  14  15  16  17  18  19  20  21  22  24  25  26 0
 3-21G
 ****
 31  33  36  37  38  39  40  41  42  43  44  45  46 0
 3-21G
 ****


