%nproc=1
%NoSave
%Mem=1900MB
#P OB98/GEN NMR

erre ene a

0 1
  C      -32.759     -50.295      -2.562
  O      -34.137     -50.475      -2.823
  P      -34.741     -50.059      -4.245
  C      -36.417     -48.647      -2.904
  O      -35.569     -48.700      -4.046
  C      -36.250     -47.312      -2.182
  O      -34.887     -47.145      -1.741
  C      -36.552     -46.096      -3.049
  O      -37.947     -45.920      -3.204
  C      -35.853     -44.993      -2.264
  O      -36.680     -44.543      -1.178
  C      -34.614     -45.725      -1.726
  N      -29.965     -43.638      -1.549
  C      -30.990     -43.627      -0.672
  N      -32.217     -44.175      -0.809
  C      -32.336     -44.763      -2.010
  C      -31.391     -44.825      -3.022
  C      -30.141     -44.246      -2.747
  N      -29.068     -44.304      -3.608
  N      -31.904     -45.488      -4.121
  C      -33.134     -45.809      -3.781
  N      -33.417     -45.450      -2.493
  O      -35.466     -51.140      -4.973
  O      -33.459     -49.578      -5.075
  H      -37.578     -44.406      -1.535
  H      -33.356     -50.143      -5.865
  H      -30.799     -43.118       0.268
  H      -33.847     -46.314      -4.420
  H      -34.403     -45.456      -0.685
  H      -35.621     -44.120      -2.880
  H      -36.066     -46.205      -4.025
  H      -36.894     -47.321      -1.292
  H      -36.144     -49.467      -2.233
  H      -28.180     -43.985      -3.253
  H      -29.083     -44.999      -4.350
  H      -37.457     -48.780      -3.218
  P      -38.623     -46.143      -4.638
  C      -39.510     -43.739      -4.740
  O      -38.684     -44.710      -5.353
  O      -39.903     -46.911      -4.636
  O      -37.489     -46.907      -5.473
  H      -37.910     -47.510      -6.114
  H      -40.556     -43.941      -4.985
  H      -39.238     -42.754      -5.125
  H      -39.380     -43.745      -3.654
  H      -32.538     -50.626      -1.569
  H      -32.511     -49.258      -2.656
  H      -32.186     -50.864      -3.264

 3  4  5  6  7  8  9  10  11  12  22  25  29  30  31  32 0
 6-311+G(2d,p)
 ****
 33  36  37 0
 6-311+G(2d,p)
 ****
 1  2  13  14  15  16  17  18  19  20  21  23  24  26 0
 3-21G
 ****
 27  28  34  35  38  39  40  41  42  43  44  45  46  47  48 0
 3-21G
 ****


