%nproc=1
%NoSave
%Mem=1900MB
#P OB98/GEN NMR

erre ene a

0 1
  C       77.986     334.932     -84.781
  O       78.758     334.653     -85.931
  H       77.045     335.394     -85.093
  H       78.521     335.632     -84.131
  H       77.766     334.011     -84.235
  P       80.171     333.932     -85.694
  C       81.536     336.125     -85.392
  O       81.042     334.934     -84.791
  C       83.008     336.313     -85.034
  O       83.179     336.150     -83.607
  C       83.943     335.296     -85.679
  O       84.231     335.619     -87.028
  C       85.155     335.386     -84.761
  O       86.008     336.483     -85.118
  C       84.517     335.648     -83.388
  N       87.310     332.502     -80.509
  C       87.612     333.655     -81.148
  N       86.802     334.445     -81.883
  C       85.556     333.942     -81.915
  C       85.100     332.776     -81.321
  C       86.038     332.037     -80.583
  N       85.739     330.846     -79.970
  N       83.767     332.572     -81.622
  C       83.425     333.598     -82.373
  N       84.471     334.451     -82.573
  O       80.865     334.020     -87.136
  O       80.093     332.527     -85.194
  H       86.723     336.507     -84.456
  H       80.699     333.194     -87.629
  H       88.647     333.982     -81.060
  H       82.439     333.759     -82.803
  H       85.059     336.411     -82.819
  H       85.756     334.478     -84.808
  H       83.516     334.289     -85.605
  H       83.303     337.336     -85.298
  H       80.962     336.982     -85.021
  H       81.409     336.054     -86.477
  H       86.467     330.358     -79.474
  H       84.823     330.437     -80.108
  P       83.977     334.509     -88.152
  C       86.528     334.164     -88.494
  O       85.275     333.569     -88.210
  O       84.049     335.344     -89.518
  O       82.684     333.773     -88.018
  H       83.150     335.538     -89.844
  H       87.288     333.411     -88.497
  H       86.753     334.895     -87.746
  H       86.489     334.636     -89.454

 6  7  8  9  10  11  12  13  14  15  25  28  32  33  34  35 0
 6-311+G(2d,p)
 ****
 36  37  40 0
 6-311+G(2d,p)
 ****
 1  2  3  4  5  16  17  18  19  20  21  22  23  24 0
 3-21G
 ****
 26  27  29  30  31  38  39 41  42  43  44  45  46  47  48 0
 3-21G
 ****


