%nproc=1
%NoSave
%Mem=1900MB
#P OB98/GEN NMR

erre ene a

0 1
  C     -327.708    -527.412    -824.295
  O     -327.679    -526.719    -823.063
  H     -326.786    -527.995    -824.398
  H     -327.758    -526.707    -825.139
  H     -328.560    -528.091    -824.328
  P     -328.843    -525.666    -822.748
  C     -330.791    -527.321    -822.348
  O     -329.852    -526.420    -821.759
  C     -331.278    -528.317    -821.303
  O     -330.343    -529.411    -821.174
  C     -331.411    -527.722    -819.900
  O     -332.567    -526.925    -819.806
  C     -331.408    -528.978    -819.051
  O     -332.696    -529.607    -819.055
  C     -330.363    -529.860    -819.801
  N     -329.038    -529.786    -819.191
  C     -328.754    -530.744    -818.227
  O     -329.588    -531.602    -817.922
  N     -327.515    -530.706    -817.613
  C     -326.648    -529.809    -817.935
  N     -325.451    -529.803    -817.281
  C     -326.911    -528.773    -818.973
  C     -328.115    -528.811    -819.546
  O     -329.494    -525.015    -823.938
  O     -328.127    -524.589    -821.793
  H     -333.324    -528.903    -818.804
  H     -327.729    -523.877    -822.319
  H     -326.158    -528.030    -819.217
  H     -328.388    -528.104    -820.320
  H     -330.695    -530.910    -819.802
  H     -331.138    -528.752    -818.023
  H     -330.511    -527.140    -819.657
  H     -332.246    -528.737    -821.633
  H     -325.327    -530.523    -816.580
  H     -330.274    -527.842    -823.167
  H     -324.696    -529.209    -817.530
  H     -331.651    -526.777    -822.770
  P     -332.600    -525.653    -818.823
  C     -331.790    -523.965    -820.602
  O     -332.873    -524.384    -819.758
  O     -331.441    -525.548    -817.894
  O     -334.025    -525.840    -818.055
  H     -333.956    -526.575    -817.380
  H     -332.093    -523.113    -821.175
  H     -331.524    -524.763    -821.263
  H     -330.946    -523.706    -819.997

 6  7  8  9  10  11  12  13  14  15  16  26  30  31  32  33  35 0
 6-311+G(2d,p)
 ****
 37  38 0
 6-311+G(2d,p)
 ****
 1  2  3  4  5  17  18  19  20  21  22  23  24  25 0
 3-21G
 ****
 27  28  29  34  36  39  40  41  42  43  44  45  46 0
 3-21G
 ****


