%nproc=1
%NoSave
%Mem=1900MB
#P OB98/GEN NMR

erre ene a

0 1
  C     -135.080    1022.869    -760.942
  O     -134.936    1024.131    -760.324
  P     -136.034    1024.701    -759.309
  C     -134.613    1024.397    -757.182
  O     -135.748    1023.938    -757.925
  C     -135.095    1025.086    -755.895
  O     -135.865    1024.137    -755.126
  C     -133.980    1025.556    -754.949
  O     -133.430    1026.827    -755.271
  C     -134.745    1025.641    -753.633
  O     -135.529    1026.863    -753.609
  C     -135.677    1024.427    -753.724
  N     -133.571    1022.705    -749.391
  C     -134.048    1023.929    -749.742
  N     -134.576    1024.308    -750.919
  C     -134.634    1023.273    -751.769
  C     -134.197    1021.969    -751.554
  C     -133.640    1021.711    -750.284
  N     -133.180    1020.453    -749.923
  N     -134.412    1021.198    -752.665
  C     -134.979    1022.004    -753.543
  N     -135.130    1023.266    -753.047
  O     -137.433    1024.619    -759.807
  O     -135.565    1026.198    -759.008
  H     -136.242    1026.762    -754.279
  H     -136.300    1026.709    -758.615
  H     -133.985    1024.701    -748.969
  H     -135.262    1021.711    -754.543
  H     -136.674    1024.630    -753.295
  H     -134.104    1025.671    -752.758
  H     -133.192    1024.801    -754.848
  H     -135.746    1025.920    -756.161
  H     -134.076    1025.128    -757.791
  H     -132.932    1020.333    -748.950
  H     -133.397    1019.679    -750.520
  H     -133.955    1023.563    -756.960
  P     -131.846    1026.912    -755.529
  C     -131.862    1027.118    -758.138
  O     -131.641    1026.312    -756.997
  O     -131.003    1026.292    -754.459
  O     -131.597    1028.478    -755.719
  H     -131.991    1028.867    -756.520
  H     -131.510    1026.591    -759.025
  H     -131.328    1028.068    -758.060
  H     -132.935    1027.318    -758.263
  H     -134.239    1022.685    -761.577
  H     -135.977    1022.858    -761.525
  H     -135.133    1022.108    -760.191

 3  4  5  6  7  8  9  10  11  12  22  25  29  30  31  32 0
 6-311+G(2d,p)
 ****
 33  36  37 0
 6-311+G(2d,p)
 ****
 1  2  13  14  15  16  17  18  19  20  21  23  24  26 0
 3-21G
 ****
 27  28  34  35  38  39  40  41  42  43  44  45  46  47  48 0
 3-21G
 ****


