%nproc=1
%NoSave
%Mem=1900MB
#P OB98/GEN NMR

erre ene a

0 1
  C     -548.366    -189.247     454.470
  O     -547.622    -188.351     455.275
  P     -548.262    -186.946     455.708
  C     -546.824    -185.677     453.951
  O     -547.207    -185.809     455.303
  C     -545.565    -184.804     453.815
  O     -545.865    -183.495     454.360
  C     -544.349    -185.310     454.592
  O     -543.178    -184.683     454.061
  C     -544.628    -184.775     455.981
  O     -543.451    -184.720     456.784
  C     -545.301    -183.413     455.688
  N     -546.355    -183.109     456.675
  C     -545.957    -182.472     457.846
  O     -544.799    -182.096     458.042
  N     -546.910    -182.354     458.821
  C     -548.180    -182.851     458.745
  O     -548.906    -183.017     459.714
  C     -548.609    -183.293     457.408
  C     -547.685    -183.426     456.451
  O     -548.170    -186.997     457.306
  O     -549.654    -186.717     455.237
  H     -543.602    -184.018     457.461
  H     -549.022    -187.294     457.683
  H     -546.581    -182.023     459.721
  H     -549.650    -183.555     457.267
  H     -547.965    -183.800     455.473
  H     -544.570    -182.597     455.711
  H     -545.337    -185.447     456.484
  H     -544.236    -186.396     454.581
  H     -545.320    -184.682     452.754
  H     -547.657    -185.242     453.383
  H     -546.627    -186.658     453.512
  P     -542.395    -185.429     452.873
  C     -540.275    -184.802     454.179
  O     -540.894    -184.878     452.910
  O     -543.060    -185.413     451.539
  O     -542.232    -186.924     453.440
  H     -542.041    -187.536     452.704
  H     -539.198    -184.928     454.057
  H     -540.651    -185.576     454.857
  H     -540.468    -183.815     454.617
  H     -547.784    -190.125     454.283
  H     -548.608    -188.775     453.541
  H     -549.268    -189.518     454.978

 3  4  5  6  7  8  9  10  11  12  13  23  28  29  30  31  32 0
 6-311+G(2d,p)
 ****
 33  34 0
 6-311+G(2d,p)
 ****
 1  2  14  15  16  17  18  19  20  21  22  24  25  26  27 0
 3-21G
 ****
 35  36  37  38  39  40  41  42  43  44  45 0
 3-21G
 ****


