%nproc=1
%NoSave
%Mem=1900MB
#P OB98/GEN NMR

erre ene a

0 1
  C      189.941    -326.259    -294.263
  O      191.182    -325.958    -294.870
  H      189.876    -327.329    -294.050
  H      189.868    -325.707    -293.324
  H      189.117    -325.957    -294.916
  P      191.473    -326.651    -296.288
  C      190.117    -324.834    -297.546
  O      190.271    -326.213    -297.255
  C      190.359    -324.577    -299.030
  O      191.726    -324.884    -299.371
  C      189.504    -325.423    -299.970
  O      188.194    -324.896    -300.107
  C      190.294    -325.297    -301.262
  O      190.009    -324.027    -301.885
  C      191.744    -325.321    -300.755
  N      195.817    -327.965    -302.366
  C      195.536    -326.645    -302.380
  N      194.438    -326.012    -301.914
  C      193.583    -326.892    -301.369
  C      193.738    -328.263    -301.261
  C      194.918    -328.807    -301.797
  N      195.163    -330.172    -301.837
  N      192.638    -328.835    -300.653
  C      191.825    -327.826    -300.418
  N      192.354    -326.632    -300.827
  O      191.182    -328.201    -295.991
  O      192.848    -326.440    -296.828
  H      189.047    -324.004    -302.042
  H      192.024    -328.655    -295.806
  H      196.291    -326.009    -302.832
  H      190.848    -327.913    -299.962
  H      192.385    -324.623    -301.304
  H      190.054    -326.074    -301.993
  H      189.487    -326.474    -299.663
  H      190.200    -323.509    -299.219
  H      190.837    -324.253    -296.958
  H      195.752    -330.454    -302.615
  H      194.353    -330.746    -301.644
  H      189.103    -324.528    -297.269
  P      187.079    -325.832    -300.783
  C      185.747    -326.516    -298.674
  O      186.668    -326.922    -299.677
  O      187.923    -326.674    -301.851
  O      185.950    -325.110    -301.433
  H      187.538    -326.557    -302.741
  H      185.562    -327.333    -298.008
  H      184.829    -326.216    -299.134
  H      186.157    -325.694    -298.125

 6  7  8  9  10  11  12  13  14  15  25  28  32  33  34  35 0
 6-311+G(2d,p)
 ****
 36  39  40 0
 6-311+G(2d,p)
 ****
 1  2  3  4  5  16  17  18  19  20  21  22  23  24 0
 3-21G
 ****
 26  27  29  30  31  37  38  41  42  43  44  45  46  47  48 0
 3-21G
 ****


