%nproc=1
%NoSave
%Mem=1900MB
#P OB98/GEN NMR

erre ene a

0 1
  C     -339.759    -494.296     185.248
  O     -338.942    -495.426     185.022
  H     -340.116    -494.322     186.281
  H     -340.623    -494.322     184.580
  H     -339.199    -493.369     185.095
  P     -338.073    -495.497     183.678
  C     -335.668    -495.737     184.580
  O     -336.787    -496.400     184.009
  C     -335.695    -495.848     186.105
  O     -335.370    -497.221     186.482
  C     -334.688    -494.927     186.821
  O     -335.266    -494.549     188.078
  C     -333.519    -495.875     187.023
  O     -332.584    -495.366     187.936
  C     -334.276    -497.144     187.419
  N     -333.456    -498.348     187.383
  C     -332.820    -498.724     188.558
  O     -332.933    -498.119     189.625
  N     -332.028    -499.839     188.476
  C     -331.813    -500.589     187.357
  O     -331.111    -501.592     187.345
  C     -332.488    -500.123     186.137
  C     -333.267    -499.041     186.205
  O     -337.775    -494.189     183.028
  O     -338.938    -496.447     182.720
  H     -339.468    -495.902     182.110
  H     -331.932    -496.058     188.184
  H     -331.559    -500.128     189.322
  H     -332.322    -500.682     185.227
  H     -333.779    -498.665     185.325
  H     -334.714    -497.036     188.417
  H     -332.984    -496.021     186.079
  H     -334.444    -494.030     186.247
  H     -336.720    -495.660     186.458
  H     -335.704    -494.686     184.283
  H     -334.748    -496.187     184.193
  P     -336.203    -493.260     188.265
  C     -337.934    -493.983     190.038
  O     -336.762    -493.222     189.771
  O     -337.277    -493.146     187.233
  O     -335.217    -491.998     188.192
  H     -335.676    -491.258     187.749
  H     -338.202    -493.875     191.068
  H     -337.746    -495.014     189.824
  H     -338.735    -493.632     189.422

 6  7  8  9  10  11  12  13  14  15  16  27  31  32  33  34  35 0
 6-311+G(2d,p)
 ****
 36  37 0
 6-311+G(2d,p)
 ****
 1  2  3  4  5  17  18  19  20  21  22  23  24  25 0
 3-21G
 ****
 26  28  29  30  38  39  40  41  42  43  44  45 0
 3-21G
 ****


