%nproc=1
%NoSave
%Mem=1900MB
#P OB98/GEN NMR

erre ene a

0 1
  C       -3.132     258.839    -148.376
  O       -3.792     258.213    -149.455
  H       -3.833     259.517    -147.884
  H       -2.277     259.418    -148.732
  H       -2.799     258.094    -147.647
  P       -2.962     257.211    -150.389
  C       -4.446     255.132    -150.016
  O       -4.002     256.121    -150.941
  C       -5.946     254.876    -150.198
  O       -6.657     256.017    -149.657
  C       -6.341     254.715    -151.673
  O       -7.074     253.520    -151.930
  C       -7.017     256.043    -152.000
  O       -7.959     255.983    -153.049
  C       -7.594     256.480    -150.647
  N       -7.796     257.924    -150.531
  C       -9.109     258.379    -150.461
  O      -10.109     257.664    -150.466
  N       -9.258     259.739    -150.370
  C       -8.253     260.658    -150.349
  O       -8.449     261.865    -150.261
  C       -6.889     260.118    -150.450
  C       -6.726     258.794    -150.534
  O       -1.723     256.640    -149.785
  O       -2.631     258.081    -151.693
  H       -8.686     255.392    -152.765
  H       -1.704     258.382    -151.658
  H      -10.203     260.081    -150.307
  H       -6.068     260.820    -150.447
  H       -5.733     258.361    -150.608
  H       -8.551     255.994    -150.465
  H       -6.242     256.756    -152.306
  H       -5.452     254.606    -152.305
  H       -6.228     253.999    -149.603
  H       -4.244     255.501    -149.006
  H       -3.889     254.204    -150.175
  P       -7.466     252.991    -153.383
  C       -5.896     250.896    -153.215
  O       -7.203     251.412    -153.425
  O       -6.945     253.794    -154.525
  O       -9.075     253.107    -153.398
  H       -9.332     253.311    -154.322
  H       -5.919     249.828    -153.280
  H       -5.549     251.187    -152.245
  H       -5.235     251.285    -153.961

 6  7  8  9  10  11  12  13  14  15  16  26  31  32  33  34  35 0
 6-311+G(2d,p)
 ****
 36  37 0
 6-311+G(2d,p)
 ****
 1  2  3  4  5  17  18  19  20  21  22  23  24  25 0
 3-21G
 ****
 27  28  29  30  38  39  40  41  42  43  44  45 0
 3-21G
 ****


