%nproc=1
%NoSave
%Mem=1900MB
#P OB98/GEN NMR

erre ene a

0 1
  C       30.125      93.764     -71.035
  O       28.859      94.346     -70.803
  H       30.002      92.682     -71.122
  H       30.794      93.973     -70.196
  H       30.563      94.142     -71.963
  P       28.729      95.943     -70.818
  C       28.132      96.066     -68.309
  O       29.042      96.447     -69.330
  C       28.040      97.151     -67.230
  O       29.346      97.277     -66.586
  C       27.666      98.548     -67.767
  O       26.954      99.222     -66.719
  C       29.043      99.151     -67.979
  O       28.995     100.535     -68.217
  C       29.730      98.666     -66.696
  N       31.181      98.802     -66.672
  C       31.707     100.085     -66.551
  O       31.036     101.111     -66.458
  N       33.075     100.166     -66.543
  C       33.943      99.117     -66.626
  O       35.161      99.250     -66.582
  C       33.327      97.789     -66.760
  C       31.996      97.692     -66.771
  O       27.475      96.485     -71.419
  O       30.024      96.419     -71.633
  H       29.770      96.651     -72.546
  H       28.399     100.710     -68.977
  H       33.474     101.087     -66.451
  H       33.988      96.936     -66.840
  H       31.512      96.726     -66.858
  H       29.306      99.183     -65.828
  H       29.510      98.712     -68.863
  H       27.044      98.509     -68.664
  H       27.336      96.822     -66.457
  H       28.491      95.132     -67.863
  H       27.146      95.894     -68.753
  P       25.417      99.672     -66.841
  C       25.775     102.194     -67.301
  O       25.345     100.942     -67.822
  O       24.745      99.889     -65.526
  O       24.700      98.504     -67.670
  H       23.753      98.475     -67.439
  H       25.675     102.947     -68.054
  H       26.800     102.123     -67.002
  H       25.174     102.454     -66.455

 6  7  8  9  10  11  12  13  14  15  16  27  31  32  33  34  35 0
 6-311+G(2d,p)
 ****
 36  37 0
 6-311+G(2d,p)
 ****
 1  2  3  4  5  17  18  19  20  21  22  23  24  25 0
 3-21G
 ****
 26  28  29  30  38  39  40  41  42  43  44  45 0
 3-21G
 ****


