%nproc=1
%NoSave
%Mem=1900MB
#P OB98/GEN NMR

erre ene a

0 1
  C      -95.817       4.917      -5.894
  O      -97.100       5.139      -5.344
  P      -98.262       4.055      -5.538
  C      -99.451       5.889      -6.888
  O      -99.161       4.499      -6.788
  C      -99.424       6.337      -8.347
  O      -98.180       5.957      -8.979
  C     -100.510       5.713      -9.207
  O     -101.786       6.259      -8.933
  C      -99.974       5.998     -10.604
  O     -100.273       7.344     -11.001
  C      -98.455       5.824     -10.395
  N      -97.963       4.558     -10.915
  C      -97.447       4.587     -12.215
  O      -97.498       5.619     -12.883
  N      -96.895       3.438     -12.725
  C      -96.967       2.333     -12.050
  N      -96.351       1.243     -12.578
  C      -97.649       2.229     -10.743
  C      -98.100       3.373     -10.231
  O      -99.029       3.715      -4.304
  O      -97.495       2.763      -6.098
  H      -97.759       1.987      -5.569
  H     -101.248       7.412     -11.037
  H      -97.741       1.272     -10.253
  H      -98.595       3.396      -9.266
  H      -97.910       6.641     -10.882
  H     -100.406       5.334     -11.360
  H     -100.534       4.629      -9.041
  H      -99.499       7.433      -8.368
  H      -95.877       1.357     -13.466
  H      -98.700       6.444      -6.318
  H      -96.068       0.448     -12.011
  H     -100.432       6.084      -6.444
  P     -102.887       5.262      -8.326
  C     -103.623       4.611     -10.721
  O     -103.210       4.165      -9.446
  O     -104.212       6.160      -8.279
  O     -102.554       4.715      -6.976
  H     -104.734       5.934      -7.487
  H     -103.464       3.805     -11.443
  H     -103.054       5.488     -11.043
  H     -104.688       4.855     -10.695
  H      -95.181       5.745      -5.661
  H      -95.897       4.816      -6.956
  H      -95.402       4.021      -5.481

 3  4  5  6  7  8  9  10  11  12  13  24  27  28  29  30  32 0
 6-311+G(2d,p)
 ****
 34  35 0
 6-311+G(2d,p)
 ****
 1  2  14  15  16  17  18  19  20  21  22  23  25  26 0
 3-21G
 ****
 31  33  36  37  38  39  40  41  42  43  44  45  46 0
 3-21G
 ****


