%nproc=1
%NoSave
%Mem=1900MB
#P OB98/GEN NMR

erre ene a

0 1
  C       10.391      34.088     126.458
  O        9.520      33.764     127.523
  H       10.608      33.179     125.892
  H       11.329      34.492     126.849
  H        9.920      34.816     125.791
  P        9.099      34.971     128.494
  C        6.754      35.691     127.652
  O        8.153      35.934     127.624
  C        5.985      37.008     127.626
  O        6.408      37.868     128.707
  C        6.153      37.810     126.341
  O        5.280      37.342     125.327
  C        5.803      39.212     126.817
  O        4.375      39.407     126.881
  C        6.421      39.237     128.222
  N        9.169      43.469     128.349
  C        7.801      43.294     128.375
  N        7.053      44.420     128.384
  N        7.217      42.126     128.382
  C        8.091      41.093     128.339
  C        9.466      41.136     128.326
  C       10.099      42.437     128.351
  O       11.305      42.658     128.395
  N       10.002      39.875     128.300
  C        8.956      39.073     128.257
  N        7.773      39.766     128.262
  O       10.449      35.821     128.641
  O        8.559      34.564     129.822
  H        3.962      38.621     127.276
  H       10.465      36.244     129.519
  H        9.559      44.395     128.364
  H        9.002      37.994     128.222
  H        5.827      39.835     128.923
  H        6.192      39.976     126.143
  H        7.417      45.301     128.049
  H        7.197      37.790     126.004
  H        6.048      44.300     128.380
  H        4.926      36.773     127.795
  H        6.505      35.148     128.569
  H        6.478      35.077     126.788
  P        5.710      37.588     123.800
  C        7.267      35.522     123.525
  O        7.166      36.936     123.629
  O        6.005      39.160     123.747
  O        4.694      37.172     122.791
  H        6.009      39.468     122.821
  H        8.295      35.245     123.417
  H        6.715      35.187     122.672
  H        6.867      35.070     124.408

 6  7  8  9  10  11  12  13  14  15  26  29  33  34 0
 6-311+G(2d,p)
 ****
 36  38  39  40  41 0
 6-311+G(2d,p)
 ****
 1  2  3  4  5  16  17  18  19  20  21  22  23  24  25 0
 3-21G
 ****
 27  28  30  31  32  35  37  42  43  44  45  46  47 0
 3-21G
 ****
 48  49 0
 3-21G
 ****


