%nproc=1
%NoSave
%Mem=1900MB
#P OB98/GEN NMR

erre ene a

0 1
  C       24.015    -136.895     -43.712
  O       22.646    -136.945     -43.358
  H       24.431    -135.946     -43.362
  H       24.135    -136.948     -44.798
  H       24.561    -137.714     -43.235
  P       21.781    -138.207     -43.830
  C       21.495    -137.023     -46.115
  O       21.845    -138.223     -45.432
  C       21.002    -137.334     -47.528
  O       22.075    -137.872     -48.326
  C       19.883    -138.368     -47.584
  O       18.656    -137.800     -47.175
  C       19.958    -138.780     -49.047
  O       19.326    -137.802     -49.890
  C       21.490    -138.792     -49.278
  N       22.087    -140.117     -49.151
  C       22.738    -140.612     -50.289
  O       22.770    -139.947     -51.323
  N       23.315    -141.857     -50.223
  C       23.289    -142.529     -49.113
  N       23.884    -143.754     -49.112
  C       22.645    -142.029     -47.882
  C       22.060    -140.835     -47.976
  O       20.396    -138.309     -43.266
  O       22.680    -139.466     -43.419
  H       19.664    -137.967     -50.793
  H       22.417    -139.803     -42.540
  H       22.656    -142.618     -46.976
  H       21.564    -140.395     -47.114
  H       21.730    -138.407     -50.279
  H       19.464    -139.732     -49.234
  H       20.139    -139.238     -46.968
  H       20.689    -136.388     -47.991
  H       24.331    -144.044     -49.976
  H       22.398    -136.403     -46.159
  H       24.064    -144.286     -48.274
  H       20.725    -136.473     -45.561
  P       17.730    -138.506     -46.072
  C       16.246    -139.810     -47.721
  O       17.255    -139.894     -46.725
  O       16.627    -137.659     -45.531
  O       18.772    -138.986     -44.955
  H       19.055    -138.223     -44.396
  H       16.015    -140.792     -48.078
  H       16.596    -139.208     -48.533
  H       15.367    -139.367     -47.302

 6  7  8  9  10  11  12  13  14  15  16  26  30  31  32  33  35 0
 6-311+G(2d,p)
 ****
 37  38 0
 6-311+G(2d,p)
 ****
 1  2  3  4  5  17  18  19  20  21  22  23  24  25 0
 3-21G
 ****
 27  28  29  34  36  39  40  41  42  43  44  45  46 0
 3-21G
 ****


