%nproc=1
%NoSave
%Mem=1900MB
#P OB98/GEN NMR

erre ene a

0 1
  C       21.092       7.715      32.592
  O       21.605       8.939      32.111
  H       21.928       7.064      32.859
  H       20.497       7.223      31.818
  H       20.479       7.886      33.480
  P       20.537      10.024      31.605
  C       20.416       8.933      29.251
  O       19.710       9.334      30.417
  C       19.456       8.257      28.279
  O       18.756       7.183      28.946
  C       18.369       9.176      27.739
  O       18.844      10.022      26.708
  C       17.352       8.160      27.246
  O       17.675       7.689      25.927
  C       17.483       7.027      28.286
  N       16.373       7.018      29.232
  C       15.284       6.229      28.877
  O       15.237       5.573      27.837
  N       14.225       6.246      29.742
  C       14.136       6.990      30.882
  O       13.129       7.017      31.577
  C       15.324       7.794      31.215
  C       16.368       7.780      30.383
  O       21.447      11.107      30.858
  O       19.699      10.634      32.678
  H       21.565      11.891      31.426
  H       17.109       6.908      25.771
  H       13.422       5.689      29.497
  H       15.289       8.392      32.117
  H       17.246       8.381      30.597
  H       17.507       6.050      27.785
  H       16.352       8.588      27.192
  H       17.922       9.756      28.555
  H       20.042       7.826      27.456
  H       21.204       8.225      29.526
  H       20.879       9.814      28.795
  P       18.161      11.461      26.522
  C       15.994      10.303      25.595
  O       16.577      11.214      26.507
  O       18.521      11.781      24.999
  O       18.627      12.478      27.508
  H       18.515      10.991      24.433
  H       14.934      10.280      25.742
  H       16.398       9.326      25.759
  H       16.208      10.614      24.594

 6  7  8  9  10  11  12  13  14  15  16  27  31  32  33  34  35 0
 6-311+G(2d,p)
 ****
 36  37 0
 6-311+G(2d,p)
 ****
 1  2  3  4  5  17  18  19  20  21  22  23  24  25 0
 3-21G
 ****
 26  28  29  30  38  39  40  41  42  43  44  45 0
 3-21G
 ****


