%nproc=1
%NoSave
%Mem=1900MB
#P OB98/GEN NMR

erre ene a

0 1
  C     -602.192     980.038    -228.606
  O     -601.757     979.736    -229.913
  H     -603.281     979.931    -228.566
  H     -601.933     981.069    -228.354
  H     -601.743     979.351    -227.881
  P     -600.169     979.630    -230.140
  C     -600.179     977.740    -231.927
  O     -599.958     979.124    -231.649
  C     -600.125     977.502    -233.435
  O     -601.310     978.039    -234.074
  C     -598.926     978.141    -234.136
  O     -597.767     977.339    -234.018
  C     -599.433     978.179    -235.563
  O     -599.334     976.862    -236.148
  C     -600.906     978.556    -235.384
  N     -601.848     982.549    -238.366
  C     -601.617     981.219    -238.709
  N     -601.652     980.918    -240.014
  N     -601.396     980.283    -237.821
  C     -601.397     980.735    -236.550
  C     -601.586     982.023    -236.095
  C     -601.860     983.054    -237.079
  O     -602.071     984.239    -236.835
  N     -601.517     982.092    -234.735
  C     -601.256     980.850    -234.350
  N     -601.159     979.989    -235.414
  O     -599.748     978.360    -229.261
  O     -599.386     980.843    -229.749
  H     -598.388     976.651    -236.218
  H     -598.867     978.516    -228.870
  H     -602.010     983.232    -239.086
  H     -601.129     980.535    -233.320
  H     -601.567     978.105    -236.132
  H     -598.855     978.855    -236.199
  H     -601.769     981.597    -240.743
  H     -598.758     979.163    -233.783
  H     -601.532     979.947    -240.272
  H     -600.134     976.418    -233.605
  H     -601.170     977.469    -231.546
  H     -599.418     977.150    -231.420
  P     -596.501     977.971    -233.245
  C     -595.681     975.600    -232.564
  O     -595.386     976.816    -233.234
  O     -597.012     978.011    -231.724
  O     -596.074     979.304    -233.722
  H     -596.505     978.677    -231.222
  H     -594.846     974.936    -232.645
  H     -596.541     975.147    -233.010
  H     -595.879     975.800    -231.532

 6  7  8  9  10  11  12  13  14  15  26  29  33  34 0
 6-311+G(2d,p)
 ****
 36  38  39  40  41 0
 6-311+G(2d,p)
 ****
 1  2  3  4  5  16  17  18  19  20  21  22  23  24  25 0
 3-21G
 ****
 27  28  30  31  32  35  37  42  43  44  45  46  47 0
 3-21G
 ****
 48  49 0
 3-21G
 ****


