%nproc=1
%NoSave
%Mem=1900MB
#P OB98/GEN NMR

erre ene a

0 1
  C      -98.784      46.391      -5.165
  O      -99.532      45.489      -5.954
  H      -98.486      45.883      -4.243
  H      -99.383      47.267      -4.903
  H      -97.880      46.701      -5.697
  P     -100.188      46.033      -7.316
  C     -102.552      46.282      -6.281
  O     -101.419      46.945      -6.825
  C     -103.509      47.298      -5.660
  O     -102.897      47.967      -4.538
  C     -103.945      48.422      -6.592
  O     -104.887      48.014      -7.570
  C     -104.540      49.389      -5.581
  O     -105.834      48.915      -5.166
  C     -103.515      49.281      -4.425
  N     -102.496      50.330      -4.465
  C     -102.955      51.652      -4.387
  O     -104.158      51.893      -4.290
  N     -102.039      52.675      -4.459
  C     -100.781      52.404      -4.615
  N      -99.921      53.456      -4.727
  C     -100.252      51.028      -4.682
  C     -101.155      50.051      -4.608
  O     -100.526      45.003      -8.345
  O      -99.157      47.140      -7.840
  H     -106.392      48.872      -5.965
  H      -99.513      47.500      -8.690
  H      -99.195      50.858      -4.821
  H     -100.846      49.013      -4.669
  H     -104.021      49.316      -3.452
  H     -104.674      50.401      -5.976
  H     -103.078      48.899      -7.063
  H     -104.373      46.740      -5.269
  H     -100.323      54.384      -4.717
  H     -102.202      45.564      -5.533
  H      -98.993      53.339      -5.121
  H     -103.086      45.744      -7.070
  P     -105.016      48.898      -8.907
  C     -106.652      50.444      -7.595
  O     -105.525      50.350      -8.453
  O     -106.289      48.260      -9.633
  O     -103.803      48.923      -9.786
  H     -106.020      47.579     -10.281
  H     -106.859      51.473      -7.390
  H     -106.446      49.932      -6.678
  H     -107.500      49.998      -8.070

 6  7  8  9  10  11  12  13  14  15  16  26  30  31  32  33  35 0
 6-311+G(2d,p)
 ****
 37  38 0
 6-311+G(2d,p)
 ****
 1  2  3  4  5  17  18  19  20  21  22  23  24  25 0
 3-21G
 ****
 27  28  29  34  36  39  40  41  42  43  44  45  46 0
 3-21G
 ****


