%nproc=1
%NoSave
%Mem=1900MB
#P OB98/GEN NMR

erre ene a

0 1
  C      250.158    -267.547     145.042
  O      249.938    -268.743     145.764
  H      251.230    -267.436     144.866
  H      249.805    -266.692     145.625
  H      249.641    -267.582     144.078
  P      248.409    -269.189     145.973
  C      246.434    -269.524     144.276
  O      247.830    -269.454     144.502
  C      246.135    -270.270     142.974
  O      246.824    -269.600     141.887
  C      246.587    -271.731     142.983
  O      245.645    -272.501     142.233
  C      247.912    -271.693     142.239
  O      248.250    -272.959     141.681
  C      247.648    -270.577     141.217
  N      248.883    -269.983     140.709
  C      249.316    -270.412     139.451
  O      248.675    -271.261     138.830
  N      250.484    -269.905     138.943
  C      251.196    -269.090     139.655
  N      252.356    -268.642     139.105
  C      250.802    -268.643     141.006
  C      249.642    -269.116     141.462
  O      247.723    -267.811     146.410
  O      248.219    -270.307     146.943
  H      247.555    -273.211     141.035
  H      248.001    -267.052     145.870
  H      251.434    -267.969     141.566
  H      249.270    -268.835     142.440
  H      247.076    -270.964     140.363
  H      248.718    -271.400     142.922
  H      246.678    -272.139     143.993
  H      245.061    -270.189     142.765
  H      252.601    -268.991     138.187
  H      246.004    -268.518     144.224
  H      253.015    -268.050     139.590
  H      245.979    -270.044     145.125
  P      244.483    -273.290     142.998
  C      243.837    -271.471     144.721
  O      243.430    -272.239     143.594
  O      244.934    -274.346     143.948
  O      243.653    -273.953     141.789
  H      243.406    -274.858     142.057
  H      243.043    -270.816     145.012
  H      244.701    -270.893     144.466
  H      244.074    -272.127     145.533

 6  7  8  9  10  11  12  13  14  15  16  26  30  31  32  33  35 0
 6-311+G(2d,p)
 ****
 37  38 0
 6-311+G(2d,p)
 ****
 1  2  3  4  5  17  18  19  20  21  22  23  24  25 0
 3-21G
 ****
 27  28  29  34  36  39  40  41  42  43  44  45  46 0
 3-21G
 ****


