%nproc=1
%NoSave
%Mem=1900MB
#P OB98/GEN NMR

erre ene a

0 1
  C      884.039     953.908    -899.362
  O      883.668     954.747    -898.262
  P      882.655     954.146    -897.182
  C      884.324     953.736    -895.192
  O      883.510     953.186    -896.202
  C      884.163     952.958    -893.852
  O      882.790     953.052    -893.432
  C      884.460     951.451    -893.942
  O      884.681     950.969    -892.622
  C      883.124     950.920    -894.462
  O      883.035     949.487    -894.212
  C      882.108     951.804    -893.752
  N      880.889     952.068    -894.522
  C      879.997     951.017    -894.792
  O      880.172     949.863    -894.402
  N      878.942     951.291    -895.552
  C      878.583     952.535    -896.082
  O      877.665     952.728    -896.852
  C      879.459     953.642    -895.672
  C      880.565     953.400    -894.912
  O      881.749     953.111    -898.042
  O      881.834     955.172    -896.482
  H      883.709     949.079    -894.832
  H      880.871     953.489    -898.192
  H      878.314     950.528    -895.822
  H      879.220     954.629    -895.972
  H      881.231     954.186    -894.642
  H      881.784     951.341    -892.792
  H      883.084     951.072    -895.542
  H      885.304     951.192    -894.592
  H      884.776     953.435    -893.082
  H      884.084     954.782    -895.042
  H      885.373     953.696    -895.502
  P      886.041     950.094    -892.352
  C      886.885     951.376    -890.282
  O      887.058     951.081    -891.652
  O      886.520     949.282    -893.512
  O      885.581     949.147    -891.132
  H      886.170     948.377    -891.072
  H      887.883     951.598    -889.812
  H      886.422     950.531    -889.762
  H      886.244     952.270    -890.182
  H      884.716     954.436    -900.000
  H      883.164     953.638    -899.915
  H      884.514     953.023    -898.991

 3  4  5  6  7  8  9  10  11  12  13  23  28  29  30  31  32 0
 6-311+G(2d,p)
 ****
 33  34 0
 6-311+G(2d,p)
 ****
 1  2  14  15  16  17  18  19  20  21  22  24  25  26  27 0
 3-21G
 ****
 35  36  37  38  39  40  41  42  43  44  45 0
 3-21G
 ****


