%nproc=1
%NoSave
%Mem=1900MB
#P OB98/GEN NMR

erre ene a

0 1
  C       82.947    -148.426      49.550
  O       82.550    -149.721      49.156
  H       83.532    -148.502      50.470
  H       82.066    -147.809      49.749
  H       83.562    -147.958      48.777
  P       81.808    -149.868      47.741
  C       84.109    -149.877      46.538
  O       82.868    -150.536      46.734
  C       84.592    -150.069      45.099
  O       85.561    -149.035      44.789
  C       85.254    -151.427      44.849
  O       84.882    -151.884      43.546
  C       86.738    -151.110      44.868
  O       87.512    -152.052      44.123
  C       86.759    -149.679      44.313
  N       87.962    -148.962      44.725
  C       88.819    -148.536      43.708
  O       88.550    -148.778      42.528
  N       89.986    -147.901      44.045
  C       90.312    -147.779      45.294
  N       91.497    -147.166      45.565
  C       89.472    -148.274      46.401
  C       88.318    -148.842      46.049
  O       81.707    -148.360      47.216
  O       80.480    -150.547      47.782
  H       87.333    -151.910      43.168
  H       80.906    -148.227      46.675
  H       89.798    -148.171      47.426
  H       87.639    -149.242      46.792
  H       86.715    -149.691      43.216
  H       87.102    -151.121      45.902
  H       84.984    -152.181      45.592
  H       83.740    -149.921      44.425
  H       92.054    -146.856      44.777
  H       84.851    -150.303      47.220
  H       91.871    -147.057      46.495
  H       83.994    -148.811      46.761
  P       84.138    -153.303      43.466
  C       81.756    -152.663      44.283
  O       82.582    -153.036      43.188
  O       84.171    -153.822      44.979
  O       84.793    -154.271      42.535
  H       84.802    -154.562      45.064
  H       80.752    -152.521      43.941
  H       82.119    -151.752      44.710
  H       81.774    -153.436      45.023

 6  7  8  9  10  11  12  13  14  15  16  26  30  31  32  33  35 0
 6-311+G(2d,p)
 ****
 37  38 0
 6-311+G(2d,p)
 ****
 1  2  3  4  5  17  18  19  20  21  22  23  24  25 0
 3-21G
 ****
 27  28  29  34  36  39  40  41  42  43  44  45  46 0
 3-21G
 ****


