%nproc=1
%NoSave
%Mem=1900MB
#P OB98/GEN NMR

erre ene a

0 1
  C      920.970     495.341     -24.036
  O      922.184     494.811     -23.563
  P      922.787     495.231     -22.146
  C      924.886     496.481     -21.314
  O      924.091     496.130     -22.442
  C      926.226     497.111     -21.785
  O      927.090     496.039     -22.273
  C      926.031     498.126     -22.945
  O      926.649     499.395     -22.673
  C      926.562     497.383     -24.134
  O      926.954     498.209     -25.215
  C      927.659     496.506     -23.510
  N      928.087     495.407     -24.379
  C      928.967     495.728     -25.423
  O      929.429     496.850     -25.624
  N      929.291     494.694     -26.264
  C      928.748     493.439     -26.242
  O      929.010     492.595     -27.075
  C      927.787     493.175     -25.161
  C      927.524     494.158     -24.262
  O      923.028     494.118     -21.184
  O      921.735     496.338     -21.626
  H      927.590     497.714     -25.768
  H      921.635     497.106     -22.205
  H      929.937     494.902     -27.019
  H      927.324     492.204     -25.122
  H      926.802     493.988     -23.456
  H      928.549     497.099     -23.247
  H      925.761     496.724     -24.525
  H      924.971     498.360     -23.081
  H      926.694     497.578     -20.903
  H      925.097     495.594     -20.719
  H      924.339     497.180     -20.670
  P      926.067     500.803     -23.186
  C      926.253     502.148     -25.441
  O      926.251     500.895     -24.782
  O      926.548     502.002     -22.447
  O      924.484     500.648     -23.030
  H      924.059     501.509     -22.872
  H      925.889     502.014     -26.475
  H      927.288     502.514     -25.460
  H      925.627     502.865     -24.900
  H      920.752     494.929     -24.999
  H      921.052     496.405     -24.114
  H      920.183     495.092     -23.355

 3  4  5  6  7  8  9  10  11  12  13  23  28  29  30  31  32 0
 6-311+G(2d,p)
 ****
 33  34 0
 6-311+G(2d,p)
 ****
 1  2  14  15  16  17  18  19  20  21  22  24  25  26  27 0
 3-21G
 ****
 35  36  37  38  39  40  41  42  43  44  45 0
 3-21G
 ****


