%nproc=1
%NoSave
%Mem=1900MB
#P OB98/GEN NMR

erre ene a

0 1
  C      103.438      38.328    -166.380
  O      102.893      39.616    -166.081
  P      102.109      40.362    -167.266
  C      102.699      42.038    -169.152
  O      103.088      41.454    -167.917
  C      103.653      43.164    -169.575
  O      103.452      44.347    -168.760
  C      105.131      42.784    -169.467
  O      105.824      43.454    -170.523
  C      105.546      43.400    -168.146
  O      106.959      43.576    -168.079
  C      104.720      44.697    -168.166
  N      104.551      45.291    -166.842
  C      105.478      46.261    -166.458
  O      106.430      46.535    -167.191
  N      105.333      46.870    -165.237
  C      104.378      46.501    -164.444
  N      104.288      47.140    -163.246
  C      103.409      45.439    -164.783
  C      103.554      44.887    -165.985
  O      101.018      41.241    -166.493
  O      101.466      39.426    -168.238
  H      107.167      44.051    -167.246
  H      100.137      41.100    -166.886
  H      102.641      45.151    -164.083
  H      102.893      44.103    -166.324
  H      105.196      45.447    -168.811
  H      105.234      42.758    -167.313
  H      105.311      41.706    -169.531
  H      103.417      43.435    -170.611
  H      104.964      47.869    -163.053
  H      101.688      42.441    -169.068
  H      103.585      46.933    -162.553
  H      102.652      41.256    -169.916
  P      106.893      42.622    -171.379
  C      109.271      41.786    -170.883
  O      108.248      42.695    -170.523
  O      107.216      43.645    -172.571
  O      106.497      41.284    -171.904
  H      107.814      43.223    -173.213
  H      110.170      42.026    -170.310
  H      109.498      41.869    -171.948
  H      108.964      40.765    -170.640
  H      103.932      37.940    -165.514
  H      104.141      38.416    -167.182
  H      102.649      37.665    -166.668

 3  4  5  6  7  8  9  10  11  12  13  21  23  27  28  29  30  32 0
 6-311+G(2d,p)
 ****
 34  35 0
 6-311+G(2d,p)
 ****
 1  2  14  15  16  17  18  19  20  22  24  25  26 0
 3-21G
 ****
 31  33  36  37  38  39  40  41  42  43  44  45  46 0
 3-21G
 ****


