%nproc=1
%NoSave
%Mem=1900MB
#P OB98/GEN NMR

erre ene a

0 1
  C      303.384     252.289    -403.470
  O      302.477     251.906    -402.456
  H      304.404     252.152    -403.101
  H      303.239     253.345    -403.720
  H      303.245     251.670    -404.363
  P      300.922     251.861    -402.857
  C      298.831     251.695    -401.280
  O      300.118     252.231    -401.519
  C      298.438     251.873    -399.810
  O      299.262     250.998    -398.999
  C      298.623     253.302    -399.295
  O      297.580     253.582    -398.359
  C      299.952     253.238    -398.558
  O      300.076     254.268    -397.583
  C      299.917     251.808    -398.001
  N      301.250     251.299    -397.684
  C      301.807     251.711    -396.470
  O      301.188     252.477    -395.730
  N      303.070     251.284    -396.139
  C      303.743     250.561    -396.980
  N      304.999     250.191    -396.603
  C      303.213     250.139    -398.289
  C      301.972     250.531    -398.572
  O      300.675     250.289    -403.029
  O      300.570     252.675    -404.058
  H      300.971     254.214    -397.181
  H      301.069     249.755    -402.319
  H      303.817     249.545    -398.960
  H      301.497     250.259    -399.508
  H      299.308     251.765    -397.087
  H      300.781     253.348    -399.270
  H      298.615     254.046    -400.094
  H      297.402     251.540    -399.684
  H      305.331     250.521    -395.705
  H      298.806     250.630    -401.533
  H      305.632     249.677    -397.196
  H      298.120     252.216    -401.928
  P      296.359     254.521    -398.797
  C      293.799     254.632    -398.439
  O      295.037     254.077    -398.006
  O      296.188     254.716    -400.266
  O      296.722     255.922    -398.090
  H      296.509     256.637    -398.723
  H      293.006     254.254    -397.829
  H      293.624     254.362    -399.459
  H      293.837     255.698    -398.354

 6  7  8  9  10  11  12  13  14  15  16  26  30  31  32  33  35 0
 6-311+G(2d,p)
 ****
 37  38 0
 6-311+G(2d,p)
 ****
 1  2  3  4  5  17  18  19  20  21  22  23  24  25 0
 3-21G
 ****
 27  28  29  34  36  39  40  41  42  43  44  45  46 0
 3-21G
 ****


