%nproc=1
%NoSave
%Mem=1900MB
#P OB98/GEN NMR

erre ene a

0 1
  C     -385.456      89.140     -79.453
  O     -385.988      90.443     -79.675
  P     -386.486      90.823     -81.150
  C     -385.988      93.348     -81.778
  O     -386.848      92.378     -81.216
  C     -385.547      94.329     -80.679
  O     -384.750      93.646     -79.688
  C     -384.706      95.485     -81.209
  O     -385.508      96.560     -81.662
  C     -383.856      95.831     -80.004
  O     -384.617      96.598     -79.054
  C     -383.543      94.424     -79.440
  N     -382.385      93.691     -79.994
  C     -381.409      93.192     -79.134
  O     -381.430      93.320     -77.913
  N     -380.378      92.508     -79.727
  C     -380.308      92.134     -81.035
  O     -379.389      91.471     -81.500
  C     -381.436      92.555     -81.870
  C     -382.396      93.307     -81.329
  O     -387.904      90.099     -81.271
  O     -385.550      90.412     -82.244
  H     -384.961      97.379     -79.524
  H     -387.873      89.406     -81.959
  H     -379.624      92.204     -79.130
  H     -381.446      92.238     -82.906
  H     -383.238      93.628     -81.939
  H     -383.400      94.467     -78.353
  H     -383.006      96.454     -80.285
  H     -384.039      95.137     -82.004
  H     -386.444      94.717     -80.181
  H     -386.488      93.887     -82.584
  H     -385.116      92.853     -82.217
  P     -384.969      97.522     -82.825
  C     -385.777      99.805     -81.981
  O     -386.006      98.749     -82.888
  O     -384.664      96.866     -84.128
  O     -383.670      98.204     -82.177
  H     -382.854      97.724     -82.444
  H     -386.445     100.637     -82.232
  H     -384.739     100.154     -82.053
  H     -385.987      99.476     -80.959
  H     -385.170      89.042     -78.427
  H     -384.599      88.993     -80.077
  H     -386.199      88.407     -79.688

 3  4  5  6  7  8  9  10  11  12  13  23  28  29  30  31  32 0
 6-311+G(2d,p)
 ****
 33  34 0
 6-311+G(2d,p)
 ****
 1  2  14  15  16  17  18  19  20  21  22  24  25  26  27 0
 3-21G
 ****
 35  36  37  38  39  40  41  42  43  44  45 0
 3-21G
 ****


