%nproc=1
%NoSave
%Mem=1900MB
#P OB98/GEN NMR

erre ene a

0 1
  C     -284.829       2.314    -688.718
  O     -285.457       1.062    -688.568
  H     -283.833       2.268    -688.266
  H     -285.406       3.090    -688.207
  H     -284.715       2.573    -689.775
  P     -286.847       0.794    -689.321
  C     -288.115       1.139    -687.102
  O     -287.985       1.530    -688.463
  C     -289.337       1.807    -686.483
  O     -289.630       1.218    -685.197
  C     -289.169       3.301    -686.232
  O     -289.277       4.036    -687.434
  C     -290.291       3.545    -685.227
  O     -291.557       3.670    -685.892
  C     -290.232       2.250    -684.381
  N     -289.507       2.415    -683.118
  C     -290.208       3.004    -682.076
  O     -291.358       3.414    -682.183
  N     -289.519       3.131    -680.894
  C     -288.212       2.808    -680.688
  O     -287.626       2.986    -679.625
  C     -287.514       2.216    -681.840
  C     -288.178       2.048    -682.983
  O     -287.140      -0.631    -689.668
  O     -286.742       1.711    -690.634
  H     -291.549       3.037    -686.631
  H     -286.496       1.158    -691.400
  H     -290.007       3.568    -680.125
  H     -286.469       1.949    -681.717
  H     -287.682       1.621    -683.843
  H     -291.250       1.905    -684.143
  H     -290.149       4.460    -684.649
  H     -288.210       3.495    -685.734
  H     -290.197       1.621    -687.141
  H     -287.218       1.453    -686.557
  H     -288.199       0.052    -687.053
  P     -288.426       5.374    -687.656
  C     -289.831       6.784    -686.046
  O     -288.543       6.251    -686.320
  O     -288.728       6.112    -688.919
  O     -286.905       4.868    -687.637
  H     -286.543       4.873    -688.543
  H     -289.798       7.349    -685.138
  H     -290.534       5.984    -685.943
  H     -290.132       7.421    -686.851

 6  7  8  9  10  11  12  13  14  15  16  26  31  32  33  34  35 0
 6-311+G(2d,p)
 ****
 36  37 0
 6-311+G(2d,p)
 ****
 1  2  3  4  5  17  18  19  20  21  22  23  24  25 0
 3-21G
 ****
 27  28  29  30  38  39  40  41  42  43  44  45 0
 3-21G
 ****


