%nproc=1
%NoSave
%Mem=1900MB
#P OB98/GEN NMR

erre ene a

0 1
  C        9.277    -157.203     -91.057
  O        8.330    -156.282     -90.533
  P        6.776    -156.583     -90.792
  C        6.367    -157.705     -88.498
  O        6.408    -157.874     -89.908
  C        5.158    -158.416     -87.902
  O        5.290    -158.436     -86.452
  C        3.808    -157.757     -88.232
  O        2.855    -158.776     -88.571
  C        3.378    -157.143     -86.911
  O        1.965    -157.000     -86.824
  C        3.978    -158.152     -85.929
  N        1.283    -156.697     -81.914
  C        0.874    -157.344     -83.063
  N       -0.449    -157.585     -83.179
  N        1.686    -157.720     -84.015
  C        2.988    -157.441     -83.750
  C        3.517    -156.812     -82.645
  C        2.598    -156.350     -81.629
  O        2.886    -155.691     -80.631
  N        4.884    -156.725     -82.728
  C        5.183    -157.296     -83.880
  N        4.060    -157.701     -84.559
  O        6.765    -157.134     -92.295
  O        5.867    -155.412     -90.640
  H        1.759    -156.780     -85.896
  H        6.158    -156.597     -92.840
  H        0.613    -156.414     -81.222
  H        6.184    -157.406     -84.277
  H        3.399    -159.086     -85.939
  H        3.840    -156.155     -86.806
  H       -1.125    -157.356     -82.467
  H        3.858    -157.015     -89.035
  H       -0.767    -158.079     -84.002
  H        5.169    -159.462     -88.234
  H        6.305    -156.637     -88.265
  H        7.290    -158.106     -88.066
  P        1.812    -158.403     -89.735
  C        3.210    -160.077     -91.158
  O        2.510    -158.848     -91.103
  O        1.865    -156.805     -89.779
  O        0.434    -158.924     -89.500
  H        1.035    -156.445     -90.147
  H        3.054    -160.679     -90.258
  H        4.277    -159.871     -91.263
  H        2.866    -160.644     -92.027
  H       10.266    -156.877     -90.809
  H        9.174    -157.254     -92.121
  H        9.104    -158.171     -90.635

 3  4  5  6  7  8  9  10  11  12  23  26  30  31  33  0
 6-311+G(2d,p)
 ****
 35  36  37  38 0
 6-311+G(2d,p)
 ****
 1  2  13  14  15  16  17  18  19  20  21  22  24  25  27  28  29 0
 3-21G
 ****
 32  34  39  40  41  42  43  44  45  46  47  48  49 0
 3-21G
 ****


