%nproc=1
%NoSave
%Mem=1900MB
#P OB98/GEN NMR

erre ene a

0 1
  C     -184.167     586.461      99.296
  O     -184.790     587.516     100.043
  P     -183.851     588.480     100.910
  C     -183.885     587.027     103.067
  O     -183.107     587.608     102.026
  C     -183.088     586.964     104.372
  O     -182.443     588.223     104.666
  C     -183.935     586.650     105.600
  O     -184.167     585.253     105.719
  C     -183.023     587.130     106.716
  O     -182.010     586.139     106.984
  C     -182.389     588.384     106.102
  N     -183.183     591.805     109.841
  C     -182.482     590.648     109.805
  N     -182.329     589.782     108.781
  C     -182.992     590.215     107.693
  C     -183.742     591.374     107.577
  C     -183.835     592.189     108.718
  N     -184.549     593.362     108.743
  N     -184.280     591.487     106.309
  C     -183.842     590.419     105.667
  N     -183.062     589.618     106.464
  O     -184.898     589.349     101.753
  O     -182.956     589.356     100.085
  H     -182.468     585.286     107.091
  H     -184.554     590.257     101.877
  H     -181.968     590.383     110.730
  H     -184.054     590.186     104.631
  H     -181.329     588.499     106.386
  H     -183.561     587.295     107.658
  H     -184.867     587.229     105.592
  H     -182.308     586.203     104.253
  H     -184.210     586.022     102.776
  H     -184.543     593.916     109.590
  H     -185.017     593.675     107.900
  H     -184.804     587.613     103.197
  P     -185.463     584.662     104.978
  C     -187.055     585.380     106.904
  O     -186.709     585.500     105.539
  O     -185.634     583.216     105.650
  O     -185.338     584.577     103.492
  H     -186.036     582.593     105.013
  H     -187.698     586.224     107.180
  H     -186.164     585.397     107.537
  H     -187.602     584.444     107.060
  H     -184.916     585.905      98.771
  H     -183.644     585.810      99.966
  H     -183.477     586.880      98.594

 3  4  5  6  7  8  9  10  11  12  22  25  29  30  31  32 0
 6-311+G(2d,p)
 ****
 33  36  37 0
 6-311+G(2d,p)
 ****
 1  2  13  14  15  16  17  18  19  20  21  23  24  26 0
 3-21G
 ****
 27  28  34  35  38  39  40  41  42  43  44  45  46  47  48 0
 3-21G
 ****


