%nproc=1
%NoSave
%Mem=1900MB
#P OB98/GEN NMR

erre ene a

0 1
  C      586.473     450.871      17.917
  O      586.263     451.180      16.551
  P      584.772     451.193      15.955
  C      582.967     449.381      15.711
  O      584.355     449.677      15.615
  C      582.744     447.871      15.713
  O      583.296     447.267      16.916
  C      581.272     447.461      15.718
  O      580.680     447.676      14.456
  C      581.386     445.999      16.140
  O      581.740     445.164      15.019
  C      582.546     446.054      17.160
  N      582.072     445.996      18.537
  C      582.773     445.135      19.385
  O      583.670     444.412      18.946
  N      582.422     445.101      20.724
  C      581.387     445.768      21.130
  N      581.121     445.750      22.463
  C      580.524     446.561      20.230
  C      580.940     446.649      18.958
  O      584.543     452.163      14.843
  O      583.852     451.544      17.210
  H      583.238     452.281      16.960
  H      581.147     445.412      14.294
  H      579.636     447.059      20.609
  H      580.380     447.225      18.234
  H      583.241     445.230      16.980
  H      580.439     445.618      16.541
  H      580.732     448.029      16.479
  H      583.270     447.444      14.843
  H      581.744     445.207      23.055
  H      582.455     449.832      14.862
  H      580.574     446.474      22.934
  H      582.560     449.831      16.623
  P      579.060     447.699      14.409
  C      577.259     445.841      14.383
  O      578.565     446.220      14.034
  O      578.733     448.555      13.096
  O      578.419     448.295      15.623
  H      577.945     449.095      13.244
  H      576.975     444.972      13.780
  H      576.550     446.651      14.218
  H      577.242     445.536      15.449
  H      587.520     450.910      18.135
  H      586.103     449.888      18.121
  H      585.955     451.581      18.527

 3  4  5  6  7  8  9  10  11  12  13  24  27  28  29  30  32 0
 6-311+G(2d,p)
 ****
 34  35 0
 6-311+G(2d,p)
 ****
 1  2  14  15  16  17  18  19  20  21  22  23  25  26 0
 3-21G
 ****
 31  33  36  37  38  39  40  41  42  43  44  45  46 0
 3-21G
 ****


