%nproc=1
%NoSave
%Mem=1900MB
#P OB98/GEN NMR

erre ene a

0 1
  C      -61.895      29.307    -163.627
  O      -61.068      30.359    -164.080
  H      -61.547      28.990    -162.641
  H      -61.839      28.454    -164.308
  H      -62.931      29.646    -163.538
  P      -61.325      30.965    -165.540
  C      -60.667      33.368    -164.861
  O      -60.367      32.245    -165.684
  C      -59.828      34.577    -165.289
  O      -58.509      34.426    -164.712
  C      -59.679      34.680    -166.813
  O      -60.050      35.956    -167.332
  C      -58.250      34.207    -167.057
  O      -57.651      34.718    -168.231
  C      -57.532      34.590    -165.757
  N      -56.342      33.789    -165.479
  C      -55.238      33.982    -166.306
  O      -55.178      34.788    -167.232
  N      -54.146      33.199    -166.026
  C      -54.058      32.267    -165.038
  O      -53.051      31.600    -164.830
  C      -55.263      32.092    -164.213
  C      -56.335      32.850    -164.468
  O      -62.752      31.210    -165.898
  O      -60.647      29.899    -166.527
  H      -56.709      34.455    -168.223
  H      -61.340      29.347    -166.934
  H      -53.337      33.338    -166.611
  H      -55.234      31.355    -163.424
  H      -57.241      32.748    -163.878
  H      -57.232      35.637    -165.778
  H      -58.261      33.113    -167.151
  H      -60.368      33.994    -167.320
  H      -60.275      35.485    -164.864
  H      -60.441      33.097    -163.825
  H      -61.733      33.608    -164.941
  P      -61.476      36.302    -167.956
  C      -61.651      38.611    -166.725
  O      -61.650      37.893    -167.950
  O      -62.621      35.496    -167.441
  O      -61.292      35.946    -169.519
  H      -62.163      35.632    -169.838
  H      -61.778      39.655    -166.923
  H      -60.721      38.455    -166.219
  H      -62.455      38.265    -166.109

 6  7  8  9  10  11  12  13  14  15  16  26  31  32  33  34  35 0
 6-311+G(2d,p)
 ****
 36  37 0
 6-311+G(2d,p)
 ****
 1  2  3  4  5  17  18  19  20  21  22  23  24  25 0
 3-21G
 ****
 27  28  29  30  38  39  40  41  42  43  44  45 0
 3-21G
 ****


