%nproc=1
%NoSave
%Mem=1900MB
#P OB98/GEN NMR

erre ene a

0 1
  C     -741.776    -515.748     194.850
  O     -741.462    -514.892     195.939
  P     -740.443    -515.455     197.047
  C     -742.370    -515.315     198.797
  O     -741.355    -516.115     198.183
  C     -742.423    -515.585     200.296
  O     -742.797    -516.957     200.536
  C     -741.095    -515.399     201.005
  O     -740.827    -514.023     201.209
  C     -741.326    -516.175     202.299
  O     -741.958    -515.349     203.293
  C     -742.264    -517.313     201.840
  N     -741.609    -518.616     201.812
  C     -741.363    -519.204     203.047
  O     -741.690    -518.618     204.090
  N     -740.722    -520.418     203.085
  C     -740.362    -520.987     201.980
  N     -739.733    -522.204     202.070
  C     -740.589    -520.389     200.648
  C     -741.199    -519.205     200.634
  O     -739.888    -514.118     197.739
  O     -739.344    -516.312     196.512
  H     -742.273    -515.967     203.985
  H     -739.004    -514.271     198.119
  H     -740.255    -520.909     199.753
  H     -741.409    -518.699     199.697
  H     -743.135    -517.389     202.516
  H     -740.388    -516.537     202.731
  H     -740.277    -515.858     200.435
  H     -743.189    -514.933     200.732
  H     -739.594    -522.583     202.997
  H     -743.337    -515.570     198.353
  H     -739.446    -522.730     201.263
  H     -742.157    -514.263     198.595
  P     -739.292    -513.550     201.197
  C     -739.390    -513.521     203.762
  O     -738.712    -514.018     202.617
  O     -739.438    -511.962     201.392
  O     -738.477    -513.902     200.001
  H     -738.554    -511.542     201.301
  H     -738.991    -514.033     204.641
  H     -740.464    -513.729     203.693
  H     -739.218    -512.450     203.861
  H     -742.459    -515.253     194.192
  H     -742.225    -516.646     195.220
  H     -740.880    -515.990     194.317

 3  4  5  6  7  8  9  10  11  12  13  21  23  27  28  29  30  32 0
 6-311+G(2d,p)
 ****
 34  35 0
 6-311+G(2d,p)
 ****
 1  2  14  15  16  17  18  19  20  22  24  25  26 0
 3-21G
 ****
 31  33  36  37  38  39  40  41  42  43  44  45  46 0
 3-21G
 ****


