%nproc=1
%NoSave
%Mem=1900MB
#P OB98/GEN NMR

erre ene a

0 1
  C      -22.372      57.921     109.058
  O      -21.927      58.527     110.254
  H      -22.040      56.879     109.048
  H      -21.944      58.435     108.193
  H      -23.465      57.944     109.002
  P      -22.349      60.058     110.486
  C      -20.073      60.791     109.460
  O      -21.490      60.925     109.444
  C      -19.480      61.417     108.201
  O      -20.090      60.820     107.034
  C      -19.726      62.916     108.072
  O      -18.829      63.672     108.869
  C      -19.527      63.120     106.575
  O      -18.140      63.262     106.243
  C      -20.076      61.814     105.986
  N      -23.107      60.660     102.052
  C      -21.840      60.296     102.354
  N      -21.108      60.634     103.438
  C      -21.819      61.424     104.258
  C      -23.112      61.883     104.080
  C      -23.772      61.465     102.912
  N      -25.047      61.865     102.586
  N      -23.482      62.715     105.120
  C      -22.433      62.749     105.918
  N      -21.408      61.981     105.438
  O      -21.683      60.401     111.903
  O      -23.818      60.323     110.479
  H      -18.104      63.534     105.305
  H      -22.341      60.271     112.613
  H      -21.349      59.652     101.628
  H      -22.364      63.316     106.838
  H      -19.440      61.424     105.180
  H      -20.038      64.019     106.226
  H      -20.767      63.153     108.327
  H      -18.404      61.195     108.174
  H      -19.811      59.726     109.492
  H      -19.681      61.282     110.358
  H      -25.450      61.544     101.719
  H      -25.512      62.550     103.167
  P      -19.373      65.002     109.577
  C      -18.325      66.432     107.674
  O      -19.475      66.145     108.456
  O      -18.137      65.466     110.482
  O      -20.616      64.817     110.382
  H      -18.275      65.201     111.410
  H      -18.553      67.211     106.977
  H      -18.027      65.553     107.141
  H      -17.528      66.748     108.314

 6  7  8  9  10  11  12  13  14  15  25  28  32  33  34  35 0
 6-311+G(2d,p)
 ****
 36  37  40 0
 6-311+G(2d,p)
 ****
 1  2  3  4  5  16  17  18  19  20  21  22  23  24 0
 3-21G
 ****
 26  27  29  30  31  38  39 41  42  43  44  45  46  47  48 0
 3-21G
 ****


