%nproc=1
%NoSave
%Mem=1900MB
#P OB98/GEN NMR

erre ene a

0 1
  C       18.112    -785.609     540.911
  O       18.480    -785.421     539.563
  H       17.492    -784.763     541.227
  H       19.004    -785.642     541.546
  H       17.533    -786.529     541.038
  P       19.238    -786.608     538.799
  C       17.193    -788.056     538.172
  O       18.214    -787.184     537.706
  C       16.175    -788.341     537.060
  O       15.404    -787.121     536.815
  C       16.806    -788.755     535.715
  O       15.860    -789.618     535.057
  C       16.893    -787.406     535.015
  O       17.192    -787.526     533.646
  C       15.529    -786.829     535.405
  N       15.362    -785.401     535.161
  C       15.125    -784.993     533.851
  O       15.043    -785.754     532.884
  N       14.985    -783.645     533.669
  C       15.040    -782.685     534.637
  O       14.875    -781.493     534.415
  C       15.304    -783.179     535.999
  C       15.444    -784.490     536.195
  O       19.877    -787.637     539.667
  O       20.319    -785.842     537.894
  H       21.201    -785.904     538.314
  H       16.473    -788.033     533.204
  H       14.806    -783.327     532.721
  H       15.364    -782.443     536.790
  H       15.627    -784.883     537.191
  H       14.729    -787.373     534.893
  H       17.706    -786.821     535.445
  H       17.760    -789.271     535.828
  H       15.468    -789.096     537.414
  H       16.693    -787.578     539.018
  H       17.651    -788.991     538.507
  P       16.246    -791.065     534.477
  C       14.077    -792.290     533.766
  O       15.169    -791.461     533.357
  O       16.433    -792.114     535.529
  O       17.597    -790.837     533.649
  H       18.102    -791.669     533.617
  H       13.438    -792.477     532.928
  H       13.522    -791.795     534.535
  H       14.455    -793.218     534.141

 6  7  8  9  10  11  12  13  14  15  16  27  31  32  33  34  35 0
 6-311+G(2d,p)
 ****
 36  37 0
 6-311+G(2d,p)
 ****
 1  2  3  4  5  17  18  19  20  21  22  23  24  25 0
 3-21G
 ****
 26  28  29  30  38  39  40  41  42  43  44  45 0
 3-21G
 ****


