%nproc=1
%NoSave
%Mem=1900MB
#P OB98/GEN NMR

erre ene a

0 1
  C      -73.817     -19.254      12.579
  O      -74.360     -17.952      12.629
  H      -73.623     -19.510      11.535
  H      -74.523     -19.978      12.992
  H      -72.874     -19.296      13.131
  P      -74.796     -17.352      14.050
  C      -74.265     -14.836      13.838
  O      -75.270     -15.842      13.790
  C      -73.789     -14.495      12.420
  O      -74.847     -13.753      11.766
  C      -72.520     -13.631      12.419
  O      -71.480     -14.174      11.609
  C      -73.046     -12.243      12.075
  O      -72.099     -11.397      11.457
  C      -74.288     -12.540      11.230
  N      -75.280     -11.467      11.242
  C      -74.923     -10.259      10.649
  O      -73.845     -10.031      10.106
  N      -75.878      -9.275      10.688
  C      -77.111      -9.374      11.258
  O      -77.925      -8.458      11.259
  C      -77.419     -10.664      11.894
  C      -76.504     -11.634      11.858
  O      -73.802     -17.513      15.150
  O      -76.168     -18.106      14.384
  H      -72.486     -10.496      11.436
  H      -76.010     -18.781      15.071
  H      -75.637      -8.402      10.248
  H      -78.385     -10.771      12.368
  H      -76.699     -12.600      12.316
  H      -74.012     -12.722      10.191
  H      -73.357     -11.751      13.004
  H      -72.069     -13.600      13.418
  H      -73.645     -15.427      11.863
  H      -73.432     -15.221      14.435
  H      -74.666     -13.938      14.320
  P      -70.418     -15.262      12.087
  C      -69.266     -16.407      10.020
  O      -69.263     -15.366      10.987
  O      -70.982     -16.546      12.593
  O      -69.667     -14.545      13.322
  H      -69.418     -15.258      13.943
  H      -68.415     -16.301       9.380
  H      -70.161     -16.349       9.437
  H      -69.224     -17.354      10.516

 6  7  8  9  10  11  12  13  14  15  16  26  31  32  33  34  35 0
 6-311+G(2d,p)
 ****
 36  37 0
 6-311+G(2d,p)
 ****
 1  2  3  4  5  17  18  19  20  21  22  23  24  25 0
 3-21G
 ****
 27  28  29  30  38  39  40  41  42  43  44  45 0
 3-21G
 ****


