%nproc=1
%NoSave
%Mem=1900MB
#P OB98/GEN NMR

erre ene a

0 1
  C      725.682     757.191    -385.294
  O      724.573     756.936    -386.171
  P      724.592     757.735    -387.564
  C      725.481     755.585    -388.717
  O      725.633     756.984    -388.548
  C      726.310     755.076    -389.899
  O      725.876     755.712    -391.140
  C      727.814     755.362    -389.772
  O      728.511     754.260    -390.370
  C      727.968     756.625    -390.602
  O      729.332     756.895    -390.948
  C      727.031     756.272    -391.758
  N      728.661     759.397    -395.461
  C      729.237     758.336    -394.844
  N      728.745     757.550    -393.865
  C      727.510     757.964    -393.519
  C      726.780     759.023    -394.069
  C      727.414     759.768    -395.089
  N      726.830     760.852    -395.703
  N      725.548     759.144    -393.434
  C      725.575     758.221    -392.492
  N      726.681     757.433    -392.570
  O      725.343     759.100    -387.191
  O      723.244     757.966    -388.133
  H      729.739     756.082    -391.263
  H      724.702     759.810    -387.054
  H      730.234     758.075    -395.202
  H      724.819     758.069    -391.735
  H      727.465     755.538    -392.432
  H      727.615     757.484    -390.041
  H      728.159     755.467    -388.722
  H      726.138     753.985    -389.996
  H      724.426     755.339    -388.882
  H      727.370     761.309    -396.418
  H      725.914     761.146    -395.427
  H      725.765     755.067    -387.792
  P      728.733     752.931    -389.494
  C      726.769     751.779    -390.674
  O      727.289     752.232    -389.432
  O      728.858     753.546    -388.011
  O      729.904     752.082    -389.904
  H      728.129     754.134    -387.851
  H      725.822     751.248    -390.468
  H      727.471     751.060    -391.145
  H      726.579     752.618    -391.327
  H      725.571     756.612    -384.401
  H      725.707     758.231    -385.044
  H      726.594     756.920    -385.784

 3  4  5  6  7  8  9  10  11  12  22  25  29  30  31  32 0
 6-311+G(2d,p)
 ****
 33  36  37 0
 6-311+G(2d,p)
 ****
 1  2  13  14  15  16  17  18  19  20  21  23  24  26 0
 3-21G
 ****
 27  28  34  35  38  39  40  41  42  43  44  45  46  47  48 0
 3-21G
 ****


