%nproc=1
%NoSave
%Mem=1900MB
#P OB98/GEN NMR

erre ene a

0 1
  C      174.884     162.170     315.083
  O      175.073     161.245     314.009
  P      176.548     160.792     313.572
  C      176.728     161.991     311.318
  O      177.201     161.944     312.659
  C      177.804     161.643     310.281
  O      177.241     161.591     308.945
  C      178.989     162.612     310.232
  O      180.131     161.818     309.892
  C      178.608     163.530     309.085
  O      179.720     164.245     308.564
  C      177.950     162.534     308.122
  N      177.063     163.192     307.165
  C      177.666     163.814     306.071
  O      178.894     163.845     305.973
  N      176.867     164.431     305.137
  C      175.589     164.501     305.336
  N      174.853     165.147     304.392
  C      174.918     163.934     306.522
  C      175.709     163.290     307.381
  O      176.632     159.418     312.991
  O      177.395     160.880     314.931
  H      179.443     164.668     307.719
  H      178.109     160.216     314.908
  H      173.854     164.040     306.659
  H      175.312     162.832     308.277
  H      178.713     161.978     307.559
  H      177.872     164.266     309.430
  H      179.151     163.149     311.168
  H      178.160     160.631     310.511
  H      175.352     165.545     303.604
  H      176.352     163.002     311.117
  H      173.871     165.359     304.503
  H      175.880     161.308     311.216
  P      181.371     161.647     310.888
  C      182.271     164.024     310.588
  O      181.690     163.096     311.488
  O      182.552     160.943     310.305
  O      180.783     160.849     312.149
  H      181.521     160.464     312.659
  H      182.243     165.017     311.037
  H      181.722     164.047     309.644
  H      183.313     163.750     310.399
  H      173.838     162.346     315.222
  H      175.373     163.093     314.849
  H      175.300     161.764     315.981

 3  4  5  6  7  8  9  10  11  12  13  23  27  28  29  30  32 0
 6-311+G(2d,p)
 ****
 34  35 0
 6-311+G(2d,p)
 ****
 1  2  14  15  16  17  18  19  20  21  22  24  25  26 0
 3-21G
 ****
 31  33  36  37  38  39  40  41  42  43  44  45  46 0
 3-21G
 ****


