%nproc=1
%NoSave
%Mem=1900MB
#P OB98/GEN NMR

erre ene a

0 1
  C      177.928    -416.138     282.287
  O      177.486    -414.849     281.918
  H      178.971    -416.255     281.980
  H      177.326    -416.893     281.774
  H      177.867    -416.285     283.368
  P      176.095    -414.306     282.506
  C      177.173    -412.115     283.350
  O      176.195    -412.704     282.501
  C      177.576    -410.729     282.838
  O      178.450    -410.891     281.683
  C      176.390    -409.854     282.402
  O      176.750    -408.497     282.651
  C      176.343    -410.127     280.913
  O      175.593    -409.143     280.229
  C      177.839    -410.185     280.582
  N      178.103    -410.834     279.298
  C      177.586    -410.212     278.169
  O      176.903    -409.183     278.223
  N      177.832    -410.832     276.974
  C      178.482    -412.020     276.810
  O      178.641    -412.546     275.718
  C      178.972    -412.662     278.042
  C      178.767    -412.046     279.216
  O      175.668    -414.901     283.807
  O      175.036    -414.595     281.340
  H      175.601    -409.319     279.264
  H      174.155    -414.755     281.723
  H      177.473    -410.384     276.148
  H      179.483    -413.610     277.952
  H      179.115    -412.494     280.145
  H      178.264    -409.180     280.548
  H      175.865    -411.093     280.707
  H      175.458    -410.106     282.913
  H      178.166    -410.236     283.615
  H      178.044    -412.778     283.362
  H      176.772    -412.038     284.366
  P      175.658    -407.315     282.699
  C      176.429    -406.805     285.101
  O      176.081    -406.262     283.835
  O      174.244    -407.797     282.806
  O      175.875    -406.501     281.335
  H      175.034    -406.086     281.065
  H      176.690    -406.012     285.770
  H      177.263    -407.466     284.989
  H      175.596    -407.346     285.498

 6  7  8  9  10  11  12  13  14  15  16  26  31  32  33  34  35 0
 6-311+G(2d,p)
 ****
 36  37 0
 6-311+G(2d,p)
 ****
 1  2  3  4  5  17  18  19  20  21  22  23  24  25 0
 3-21G
 ****
 27  28  29  30  38  39  40  41  42  43  44  45 0
 3-21G
 ****


