%nproc=1
%NoSave
%Mem=1900MB
#P OB98/GEN NMR

erre ene a

0 1
  C      -91.362     222.012     -33.307
  O      -92.768     221.808     -33.468
  P      -93.767     222.297     -32.311
  C      -94.113     224.848     -32.464
  O      -94.597     223.568     -32.838
  C      -94.580     225.927     -33.458
  O      -93.902     225.752     -34.729
  C      -96.097     225.882     -33.719
  O      -96.731     227.155     -33.566
  C      -96.198     225.254     -35.101
  O      -97.408     225.578     -35.771
  C      -94.896     225.699     -35.775
  N      -94.503     224.803     -36.868
  C      -95.346     224.766     -37.976
  O      -96.412     225.377     -38.036
  N      -94.950     223.939     -38.995
  C      -93.868     223.116     -38.988
  O      -93.585     222.360     -39.911
  C      -93.048     223.149     -37.764
  C      -93.401     223.981     -36.775
  O      -93.162     222.451     -30.953
  O      -94.888     221.139     -32.297
  H      -97.374     225.189     -36.672
  H      -95.139     220.972     -31.366
  H      -95.542     223.914     -39.813
  H      -92.192     222.492     -37.709
  H      -92.821     224.019     -35.863
  H      -94.994     226.702     -36.200
  H      -96.177     224.161     -34.988
  H      -96.613     225.242     -32.991
  H      -94.292     226.899     -33.041
  H      -93.022     224.838     -32.447
  H      -94.430     225.072     -31.438
  P      -97.232     227.752     -32.169
  C      -95.015     228.833     -31.367
  O      -96.341     229.037     -31.822
  O      -97.379     226.765     -31.051
  O      -98.663     228.388     -32.537
  H      -99.295     228.201     -31.811
  H      -94.683     229.730     -30.839
  H      -94.355     228.671     -32.226
  H      -94.944     227.972     -30.687
  H      -90.846     221.631     -34.163
  H      -91.025     221.500     -32.430
  H      -91.163     223.059     -33.207

 3  4  5  6  7  8  9  10  11  12  13  23  28  29  30  31  32 0
 6-311+G(2d,p)
 ****
 33  34 0
 6-311+G(2d,p)
 ****
 1  2  14  15  16  17  18  19  20  21  22  24  25  26  27 0
 3-21G
 ****
 35  36  37  38  39  40  41  42  43  44  45 0
 3-21G
 ****


