%nproc=1
%NoSave
%Mem=1900MB
#P OB98/GEN NMR

erre ene a

0 1
  C       16.212     -97.126     -51.517
  O       16.159     -98.278     -50.676
  P       14.748     -98.713     -50.050
  C       12.693     -97.528     -49.041
  O       14.066     -97.415     -49.396
  C       12.341     -96.564     -47.905
  O       12.882     -97.005     -46.643
  C       12.895     -95.164     -48.115
  O       12.155     -94.464     -49.098
  C       12.804     -94.593     -46.704
  O       11.480     -94.111     -46.428
  C       13.112     -95.831     -45.831
  N       14.457     -95.823     -45.272
  C       14.607     -95.161     -44.047
  O       13.647     -94.596     -43.524
  N       15.849     -95.145     -43.457
  C       16.849     -95.731     -44.044
  N       18.052     -95.686     -43.413
  C       16.732     -96.429     -45.339
  C       15.522     -96.428     -45.896
  O       14.772     -99.927     -49.181
  O       13.841     -98.955     -51.354
  H       11.253     -93.508     -47.163
  H       13.173     -99.640     -51.152
  H       17.595     -96.905     -45.785
  H       15.350     -96.915     -46.850
  H       12.403     -95.892     -44.996
  H       13.490     -93.751     -46.562
  H       13.950     -95.227     -48.418
  H       11.246     -96.520     -47.819
  H       18.109     -95.194     -42.528
  H       12.478     -98.557     -48.735
  H       18.878     -96.153     -43.761
  H       12.080     -97.330     -49.930
  P       12.813     -94.303     -50.553
  C       14.744     -92.928     -51.600
  O       14.029     -93.269     -50.427
  O       11.701     -93.474     -51.359
  O       13.129     -95.592     -51.244
  H       11.698     -93.751     -52.294
  H       15.305     -92.007     -51.407
  H       14.071     -92.758     -52.446
  H       15.450     -93.724     -51.847
  H       17.217     -96.973     -51.850
  H       15.884     -96.268     -50.968
  H       15.574     -97.273     -52.364

 3  4  5  6  7  8  9  10  11  12  13  23  27  28  29  30  32 0
 6-311+G(2d,p)
 ****
 34  35 0
 6-311+G(2d,p)
 ****
 1  2  14  15  16  17  18  19  20  21  22  24  25  26 0
 3-21G
 ****
 31  33  36  37  38  39  40  41  42  43  44  45  46 0
 3-21G
 ****


