%nproc=1
%NoSave
%Mem=1900MB
#P OB98/GEN NMR

erre ene a

0 1
  C      402.257     377.972    -222.479
  O      402.016     377.110    -223.597
  P      402.668     377.569    -224.993
  C      403.838     375.276    -225.319
  O      402.949     376.244    -225.866
  C      403.647     373.906    -225.986
  O      402.402     373.285    -225.563
  C      403.614     373.964    -227.522
  O      404.231     372.758    -227.997
  C      402.129     373.917    -227.830
  O      401.881     373.530    -229.182
  C      401.673     372.929    -226.767
  N      397.188     371.563    -228.652
  C      398.444     371.484    -229.206
  N      398.533     370.902    -230.426
  N      399.531     371.919    -228.628
  C      399.298     372.446    -227.386
  C      398.097     372.564    -226.713
  C      396.905     372.095    -227.400
  O      395.764     372.142    -226.945
  N      398.277     373.111    -225.470
  C      399.572     373.380    -225.422
  N      400.249     372.940    -226.526
  O      404.130     378.064    -224.565
  O      401.905     378.635    -225.697
  H      400.932     373.700    -229.354
  H      404.155     379.035    -224.508
  H      396.388     371.222    -229.156
  H      400.075     373.862    -224.594
  H      401.932     371.886    -227.026
  H      401.675     374.910    -227.662
  H      397.747     370.501    -230.914
  H      404.112     374.842    -227.952
  H      399.456     370.797    -230.838
  H      404.464     373.250    -225.654
  H      403.664     375.170    -224.246
  H      404.869     375.630    -225.429
  P      405.466     372.901    -229.000
  C      406.449     370.694    -228.041
  O      406.094     371.437    -229.195
  O      406.573     373.660    -228.113
  O      405.182     373.658    -230.255
  H      407.055     374.303    -228.666
  H      406.399     369.638    -228.283
  H      405.780     370.904    -227.206
  H      407.477     370.952    -227.752
  H      401.779     377.571    -221.610
  H      401.861     378.944    -222.687
  H      403.310     378.045    -222.305

 3  4  5  6  7  8  9  10  11  12  23  26  30  31 0
 6-311+G(2d,p)
 ****
 33  35  36  37  38 0
 6-311+G(2d,p)
 ****
 1  2  13  14  15  16  17  18  19  20  21  22  24  25 0
 3-21G
 ****
 27  28  29  32  34  39  40  41  42  43  44  45  46  47  48  49 0
 3-21G
 ****


