%nproc=1
%NoSave
%Mem=1900MB
#P OB98/GEN NMR

erre ene a

0 1
  C       27.549      79.359    -279.248
  O       27.686      79.668    -277.856
  P       27.657      81.215    -277.438
  C       29.569      80.994    -275.679
  O       28.214      81.349    -275.942
  C       29.894      81.214    -274.201
  O       29.400      80.128    -273.393
  C       31.387      81.274    -273.920
  O       31.914      82.536    -274.280
  C       31.439      80.989    -272.423
  O       31.355      82.197    -271.650
  C       30.197      80.098    -272.193
  N       30.540      78.738    -271.820
  C       31.115      78.576    -270.554
  O       31.323      79.558    -269.836
  N       31.462      77.313    -270.146
  C       31.276      76.305    -270.940
  N       31.644      75.077    -270.484
  C       30.697      76.437    -272.296
  C       30.357      77.670    -272.667
  O       26.094      81.525    -277.279
  O       28.300      82.126    -278.435
  H       30.440      82.524    -271.771
  H       25.906      82.445    -277.531
  H       30.570      75.568    -272.925
  H       29.928      77.859    -273.648
  H       29.570      80.519    -271.394
  H       32.378      80.502    -272.143
  H       31.904      80.474    -274.468
  H       29.413      82.147    -273.872
  H       32.039      75.027    -269.552
  H       30.240      81.588    -276.303
  H       31.550      74.227    -271.023
  H       29.720      79.947    -275.966
  P       33.217      82.569    -275.203
  C       34.384      84.605    -274.162
  O       33.650      84.114    -275.265
  O       32.600      82.339    -276.668
  O       34.299      81.587    -274.896
  H       33.315      82.239    -277.321
  H       34.787      85.588    -274.421
  H       35.212      83.939    -273.921
  H       33.723      84.714    -273.297
  H       27.585      78.298    -279.383
  H       28.347      79.816    -279.795
  H       26.612      79.732    -279.606

 3  4  5  6  7  8  9  10  11  12  13  21  23  27  28  29  30  32 0
 6-311+G(2d,p)
 ****
 34  35 0
 6-311+G(2d,p)
 ****
 1  2  14  15  16  17  18  19  20  22  24  25  26 0
 3-21G
 ****
 31  33  36  37  38  39  40  41  42  43  44  45  46 0
 3-21G
 ****


