%nproc=1
%NoSave
%Mem=1900MB
#P OB98/GEN NMR

erre ene a

0 1
  C      173.053     737.495     295.366
  O      171.672     737.269     295.163
  H      173.462     737.977     294.474
  H      173.573     736.547     295.524
  H      173.202     738.153     296.225
  P      170.891     736.475     296.315
  C      170.950     734.136     295.176
  O      170.154     735.236     295.607
  C      170.048     732.941     294.891
  O      169.653     732.316     296.138
  C      168.745     733.295     294.188
  O      168.913     733.500     292.795
  C      167.907     732.067     294.495
  O      168.159     731.003     293.561
  C      168.377     731.681     295.911
  N      167.396     732.054     296.926
  C      166.190     731.359     296.883
  O      165.947     730.483     296.057
  N      165.252     731.733     297.802
  C      165.375     732.741     298.708
  O      164.472     733.063     299.470
  C      166.661     733.458     298.697
  C      167.602     733.086     297.818
  O      169.690     737.465     296.693
  O      171.717     736.116     297.504
  H      169.869     737.881     297.556
  H      168.126     731.413     292.675
  H      164.373     731.234     297.790
  H      166.790     734.270     299.401
  H      168.553     733.608     297.782
  H      168.547     730.601     295.979
  H      166.846     732.293     294.444
  H      168.285     734.166     294.666
  H      170.617     732.206     294.305
  H      171.661     733.866     295.961
  H      171.507     734.430     294.281
  P      168.910     735.013     292.260
  C      166.380     735.192     292.944
  O      167.384     735.370     291.957
  O      169.580     734.812     290.822
  O      169.637     735.954     293.162
  H      169.419     733.916     290.467
  H      165.432     735.487     292.545
  H      166.610     735.793     293.799
  H      166.341     734.162     293.232

 6  7  8  9  10  11  12  13  14  15  16  27  31  32  33  34  35 0
 6-311+G(2d,p)
 ****
 36  37 0
 6-311+G(2d,p)
 ****
 1  2  3  4  5  17  18  19  20  21  22  23  24  25 0
 3-21G
 ****
 26  28  29  30  38  39  40  41  42  43  44  45 0
 3-21G
 ****


