%nproc=1
%NoSave
%Mem=1900MB
#P OB98/GEN NMR

erre ene a

0 1
  C      113.500     190.023     675.660
  O      112.625     191.157     675.712
  P      112.160     191.813     674.320
  C      112.624     194.371     674.592
  O      111.662     193.316     674.623
  C      112.010     195.648     675.155
  O      110.840     196.064     674.414
  C      111.561     195.535     676.607
  O      112.639     195.718     677.515
  C      110.590     196.706     676.714
  O      111.325     197.924     676.903
  C      109.917     196.694     675.341
  N      104.933     197.058     676.156
  C      105.925     198.025     676.237
  N      105.535     199.264     676.593
  N      107.184     197.784     676.018
  C      107.433     196.495     675.649
  C      106.538     195.460     675.529
  C      105.140     195.738     675.807
  O      104.224     194.921     675.754
  N      107.163     194.296     675.155
  C      108.433     194.638     675.028
  N      108.656     195.965     675.331
  O      110.786     191.047     674.005
  O      113.145     191.669     673.212
  H      110.697     198.662     676.766
  H      110.640     191.019     673.044
  H      103.976     197.300     676.346
  H      109.232     193.970     674.715
  H      109.699     197.698     674.963
  H      109.913     196.606     677.569
  H      104.564     199.539     676.735
  H      111.026     194.591     676.781
  H      106.241     199.988     676.634
  H      112.770     196.456     675.088
  H      112.969     194.544     673.561
  H      113.516     194.063     675.155
  P      113.226     194.424     678.261
  C      113.785     195.489     680.564
  O      114.272     194.975     679.349
  O      114.145     193.752     677.136
  O      112.187     193.473     678.776
  H      114.158     192.778     677.253
  H      114.627     195.663     681.235
  H      113.099     194.783     681.039
  H      113.270     196.448     680.395
  H      113.722     189.698     676.655
  H      114.408     190.295     675.163
  H      113.024     189.229     675.123

 3  4  5  6  7  8  9  10  11  12  23  26  30  31 0
 6-311+G(2d,p)
 ****
 33  35  36  37  38 0
 6-311+G(2d,p)
 ****
 1  2  13  14  15  16  17  18  19  20  21  22  24  25 0
 3-21G
 ****
 27  28  29  32  34  39  40  41  42  43  44  45  46  47  48  49 0
 3-21G
 ****


