%nproc=1
%NoSave
%Mem=1900MB
#P OB98/GEN NMR

erre ene a

0 1
  C       77.393      78.859     114.253
  O       76.248      79.665     114.089
  H       78.213      79.296     113.678
  H       77.192      77.855     113.869
  H       77.694      78.797     115.302
  P       75.057      79.535     115.149
  C       73.830      77.508     116.175
  O       74.419      78.066     115.007
  C       72.455      76.906     115.882
  O       71.606      77.906     115.278
  C       72.524      75.733     114.900
  O       72.768      74.474     115.504
  C       71.138      75.775     114.261
  O       70.191      75.003     115.018
  C       70.774      77.263     114.302
  N       68.502      78.940     110.039
  C       67.978      78.152     111.048
  N       66.705      77.736     110.872
  N       68.654      77.802     112.111
  C       69.943      78.212     112.096
  C       70.578      78.978     111.144
  C       69.801      79.425     110.006
  O       70.212      80.136     109.095
  N       71.905      79.164     111.447
  C       72.088      78.438     112.533
  N       70.911      77.908     113.008
  O       73.907      80.471     114.534
  O       75.387      79.958     116.548
  H       70.522      74.086     115.073
  H       73.379      80.857     115.257
  H       67.924      79.202     109.260
  H       73.036      78.300     113.039
  H       69.734      77.412     114.622
  H       71.160      75.347     113.255
  H       66.170      77.902     110.037
  H       73.265      75.926     114.118
  H       66.349      77.003     111.492
  H       71.980      76.610     116.828
  H       73.736      78.322     116.896
  H       74.492      76.755     116.613
  P       73.680      73.379     114.780
  C       73.292      71.890     112.651
  O       72.759      72.530     113.790
  O       74.008      72.347     115.957
  O       74.920      73.903     114.131
  H       74.892      72.520     116.331
  H       72.509      71.380     112.130
  H       74.037      71.185     112.954
  H       73.734      72.620     112.006

 6  7  8  9  10  11  12  13  14  15  26  29  33  34 0
 6-311+G(2d,p)
 ****
 36  38  39  40  41 0
 6-311+G(2d,p)
 ****
 1  2  3  4  5  16  17  18  19  20  21  22  23  24  25 0
 3-21G
 ****
 27  28  30  31  32  35  37  42  43  44  45  46  47 0
 3-21G
 ****
 48  49 0
 3-21G
 ****


