%nproc=1
%NoSave
%Mem=1900MB
#P OB98/GEN NMR

erre ene a

0 1
  C      509.312     834.424     262.234
  O      510.218     834.761     261.198
  P      511.486     835.683     261.459
  C      511.020     837.324     259.539
  O      511.076     837.156     260.951
  C      510.779     838.799     259.185
  O      509.404     839.160     259.421
  C      511.618     839.788     259.988
  O      512.956     839.814     259.503
  C      510.831     841.068     259.785
  O      511.169     841.697     258.532
  C      509.374     840.553     259.765
  N      508.678     840.796     261.025
  C      507.570     841.619     260.962
  O      507.210     842.152     259.876
  N      506.873     841.906     262.123
  C      507.302     841.404     263.241
  N      506.589     841.729     264.363
  C      508.504     840.550     263.356
  C      509.136     840.296     262.223
  O      512.787     835.161     260.953
  O      511.458     835.862     263.074
  H      510.625     842.507     258.463
  H      511.754     835.037     263.526
  H      508.819     840.177     264.320
  H      510.030     839.670     262.213
  H      508.805     841.057     258.968
  H      511.041     841.806     260.572
  H      511.600     839.500     261.040
  H      510.994     838.925     258.097
  H      505.787     842.337     264.249
  H      510.205     836.735     259.141
  H      506.846     841.439     265.294
  H      511.959     836.974     259.089
  P      514.083     840.564     260.349
  C      514.556     841.993     258.265
  O      514.329     842.000     259.657
  O      515.302     839.762     260.634
  O      513.334     840.951     261.720
  H      513.932     840.750     262.466
  H      514.368     843.002     257.875
  H      513.865     841.297     257.758
  H      515.593     841.711     258.064
  H      508.537     833.799     261.841
  H      508.881     835.317     262.635
  H      509.834     833.901     263.008

 3  4  5  6  7  8  9  10  11  12  13  23  27  28  29  30  32 0
 6-311+G(2d,p)
 ****
 34  35 0
 6-311+G(2d,p)
 ****
 1  2  14  15  16  17  18  19  20  21  22  24  25  26 0
 3-21G
 ****
 31  33  36  37  38  39  40  41  42  43  44  45  46 0
 3-21G
 ****


