%nproc=1
%NoSave
%Mem=1900MB
#P OB98/GEN NMR

erre ene a

0 1
  C      109.388     113.750    -585.146
  O      109.081     114.766    -586.078
  H      110.210     114.076    -584.505
  H      108.508     113.567    -584.522
  H      109.658     112.820    -585.658
  P      110.115     114.990    -587.284
  C      108.547     113.757    -588.946
  O      109.834     113.816    -588.344
  C      108.438     112.536    -589.857
  O      108.986     111.381    -589.156
  C      107.001     112.187    -590.283
  O      107.026     111.751    -591.644
  C      106.653     111.009    -589.394
  O      105.652     110.172    -589.958
  C      108.012     110.327    -589.251
  N      106.073     106.082    -587.234
  C      106.092     106.552    -588.501
  N      106.681     107.673    -588.962
  C      107.359     108.294    -587.980
  C      107.435     107.932    -586.647
  C      106.736     106.771    -586.281
  N      106.653     106.320    -584.982
  N      108.180     108.858    -585.942
  C      108.517     109.775    -586.827
  N      108.041     109.480    -588.074
  O      111.513     114.571    -586.623
  O      110.156     116.370    -587.850
  H      105.973     109.825    -590.812
  H      111.910     115.346    -586.182
  H      105.554     105.962    -589.234
  H      109.074     110.680    -586.613
  H      108.265     109.702    -590.119
  H      106.291     111.374    -588.422
  H      106.296     113.019    -590.171
  H      109.072     112.704    -590.738
  H      108.390     114.661    -589.544
  H      106.041     105.543    -584.792
  H      107.050     106.881    -584.240
  H      107.784     113.716    -588.163
  P      106.498     112.780    -592.756
  C      108.936     113.217    -593.565
  O      107.694     113.773    -593.142
  O      105.487     113.716    -591.944
  O      105.823     112.121    -593.917
  H      104.758     114.010    -592.519
  H      109.624     114.007    -593.784
  H      108.781     112.625    -594.443
  H      109.335     112.602    -592.786

 6  7  8  9  10  11  12  13  14  15  25  28  32  33  34  35 0
 6-311+G(2d,p)
 ****
 36  39  40 0
 6-311+G(2d,p)
 ****
 1  2  3  4  5  16  17  18  19  20  21  22  23  24 0
 3-21G
 ****
 26  27  29  30  31  37  38  41  42  43  44  45  46  47 0
 3-21G
 ****
 48 0
 3-21G
 ****


