%nproc=1
%NoSave
%Mem=1900MB
#P OB98/GEN NMR

erre ene a

0 1
  C      146.339     463.174    -476.112
  O      146.041     464.159    -475.144
  P      147.198     465.018    -474.442
  C      146.607     467.307    -475.452
  O      147.524     466.224    -475.454
  C      147.291     468.616    -475.072
  O      147.704     468.564    -473.677
  C      148.534     468.959    -475.903
  O      148.566     470.385    -476.017
  C      149.666     468.468    -475.018
  O      150.918     469.053    -475.358
  C      149.122     468.833    -473.630
  N      149.792     468.087    -472.571
  C      150.801     468.756    -471.876
  O      151.146     469.888    -472.222
  N      151.444     468.109    -470.850
  C      151.164     466.865    -470.602
  N      151.825     466.275    -469.571
  C      150.194     466.084    -471.397
  C      149.539     466.754    -472.346
  O      148.386     464.236    -473.994
  O      146.438     465.766    -473.247
  H      151.611     468.645    -474.800
  H      146.282     465.142    -472.494
  H      150.034     465.035    -471.193
  H      148.809     466.271    -472.973
  H      149.243     469.903    -473.435
  H      149.770     467.384    -475.118
  H      148.544     468.491    -476.892
  H      146.557     469.428    -475.160
  H      152.468     466.851    -469.048
  H      145.824     467.094    -474.721
  H      151.625     465.341    -469.249
  H      146.128     467.393    -476.441
  P      148.759     471.103    -477.444
  C      146.517     472.315    -477.605
  O      147.310     471.247    -478.090
  O      149.790     470.477    -478.329
  O      149.147     472.616    -477.071
  H      149.528     473.054    -477.856
  H      145.687     472.487    -478.301
  H      147.101     473.233    -477.520
  H      146.105     472.053    -476.626
  H      145.431     462.722    -476.452
  H      146.969     462.426    -475.678
  H      146.843     463.628    -476.940

 3  4  5  6  7  8  9  10  11  12  13  23  27  28  29  30  32 0
 6-311+G(2d,p)
 ****
 34  35 0
 6-311+G(2d,p)
 ****
 1  2  14  15  16  17  18  19  20  21  22  24  25  26 0
 3-21G
 ****
 31  33  36  37  38  39  40  41  42  43  44  45  46 0
 3-21G
 ****


