%nproc=1
%NoSave
%Mem=1900MB
#P OB98/GEN NMR

erre ene a

0 1
  C     -270.335     910.876    -536.520
  O     -270.211     911.686    -535.364
  H     -270.138     909.844    -536.255
  H     -269.589     911.195    -537.263
  H     -271.337     910.953    -536.943
  P     -270.638     913.218    -535.500
  C     -272.791     913.024    -534.004
  O     -271.503     913.567    -534.186
  C     -273.087     912.827    -532.518
  O     -272.546     911.564    -532.077
  C     -272.515     913.932    -531.614
  O     -273.418     914.177    -530.539
  C     -271.230     913.302    -531.067
  O     -270.823     913.893    -529.839
  C     -271.648     911.820    -530.957
  N     -270.524     910.898    -530.954
  C     -270.451     910.002    -529.860
  O     -271.326     910.039    -528.985
  N     -269.374     909.151    -529.776
  C     -268.433     909.205    -530.648
  N     -267.402     908.331    -530.514
  C     -268.444     910.149    -531.790
  C     -269.517     910.957    -531.890
  O     -271.733     913.157    -536.666
  O     -269.491     914.155    -535.780
  H     -269.991     913.449    -529.559
  H     -272.372     912.434    -536.555
  H     -267.608     910.165    -532.503
  H     -269.603     911.682    -532.675
  H     -272.251     911.674    -530.047
  H     -270.418     913.407    -531.795
  H     -272.318     914.870    -532.171
  H     -274.191     912.770    -532.385
  H     -267.427     907.715    -529.708
  H     -272.876     912.052    -534.516
  H     -266.585     908.338    -531.103
  H     -273.522     913.719    -534.460
  P     -273.335     915.569    -529.737
  C     -275.741     916.393    -530.241
  O     -274.827     915.968    -529.258
  O     -272.561     916.640    -530.416
  O     -272.624     915.116    -528.355
  H     -271.983     915.818    -528.128
  H     -276.679     916.621    -529.781
  H     -275.878     915.614    -530.962
  H     -275.361     917.267    -530.728

 6  7  8  9  10  11  12  13  14  15  16  26  30  31  32  33  35 0
 6-311+G(2d,p)
 ****
 37  38 0
 6-311+G(2d,p)
 ****
 1  2  3  4  5  17  18  19  20  21  22  23  24  25 0
 3-21G
 ****
 27  28  29  34  36  39  40  41  42  43  44  45  46 0
 3-21G
 ****


