%nproc=1
%NoSave
%Mem=1900MB
#P OB98/GEN NMR

erre ene a

0 1
  C      144.893     205.788     425.350
  O      145.474     205.392     426.578
  H      144.373     204.923     424.912
  H      145.674     206.104     424.655
  H      144.168     206.600     425.488
  P      146.043     206.529     427.561
  C      145.809     207.074     430.072
  O      145.558     206.128     429.044
  C      145.666     206.428     431.456
  O      144.269     206.069     431.662
  C      146.509     205.149     431.631
  O      146.873     205.063     433.022
  C      145.497     204.065     431.290
  O      145.913     202.807     431.763
  C      144.226     204.643     431.930
  N      143.004     204.022     431.419
  C      142.084     203.585     432.359
  O      142.271     203.667     433.572
  N      140.955     202.996     431.872
  C      140.684     202.757     430.546
  O      139.668     202.192     430.174
  C      141.714     203.193     429.598
  C      142.814     203.809     430.062
  O      145.751     207.935     427.170
  O      147.619     206.236     427.628
  H      145.227     202.130     431.583
  H      148.108     207.072     427.778
  H      140.271     202.686     432.545
  H      141.539     203.006     428.548
  H      143.597     204.136     429.389
  H      144.244     204.510     433.027
  H      145.367     203.987     430.208
  H      147.392     205.120     431.000
  H      145.922     207.174     432.224
  H      145.071     207.887     429.972
  H      146.818     207.489     429.955
  P      148.402     205.114     433.497
  C      149.711     206.467     435.287
  O      148.475     205.831     434.938
  O      149.352     205.699     432.489
  O      148.790     203.593     433.819
  H      149.753     203.454     433.697
  H      149.626     206.901     436.261
  H      149.932     207.233     434.573
  H      150.498     205.742     435.287

 6  7  8  9  10  11  12  13  14  15  16  26  31  32  33  34  35 0
 6-311+G(2d,p)
 ****
 36  37 0
 6-311+G(2d,p)
 ****
 1  2  3  4  5  17  18  19  20  21  22  23  24  25 0
 3-21G
 ****
 27  28  29  30  38  39  40  41  42  43  44  45 0
 3-21G
 ****


