%nproc=1
%NoSave
%Mem=1900MB
#P OB98/GEN NMR

erre ene a

0 1
  C       16.431    -348.107     103.733
  O       17.375    -348.702     104.595
  H       16.429    -347.028     103.910
  H       15.435    -348.501     103.953
  H       16.674    -348.291     102.683
  P       17.904    -350.174     104.258
  C       19.588    -349.036     102.669
  O       18.673    -350.109     102.849
  C       20.489    -349.254     101.452
  O       21.284    -348.074     101.202
  C       21.482    -350.398     101.661
  O       20.981    -351.692     101.388
  C       22.596    -350.025     100.690
  O       22.307    -350.512      99.368
  C       22.571    -348.495     100.715
  N       27.448    -347.006     101.027
  C       26.793    -347.624      99.980
  N       27.548    -347.933      98.902
  N       25.521    -347.921     100.001
  C       24.916    -347.639     101.178
  C       25.463    -347.042     102.292
  C       26.862    -346.665     102.238
  O       27.491    -346.124     103.141
  N       24.538    -346.913     103.300
  C       23.459    -347.498     102.824
  N       23.629    -347.929     101.530
  O       16.568    -350.979     103.885
  O       18.651    -350.856     105.364
  H       21.436    -350.172      99.098
  H       16.690    -351.928     104.064
  H       28.422    -346.776     100.945
  H       22.522    -347.608     103.361
  H       22.683    -348.075      99.706
  H       23.555    -350.462     100.984
  H       28.552    -347.831      98.887
  H       21.888    -350.366     102.677
  H       27.175    -348.613      98.237
  H       19.865    -349.417     100.565
  H       20.193    -348.983     103.576
  H       19.049    -348.090     102.582
  P       21.926    -352.973     101.571
  C       21.204    -353.672     103.971
  O       22.207    -353.127     103.142
  O       23.324    -352.469     100.979
  O       21.449    -354.209     100.888
  H       23.421    -352.753     100.053
  H       21.554    -353.703     104.982
  H       20.971    -354.664     103.644
  H       20.326    -353.063     103.916

 6  7  8  9  10  11  12  13  14  15  26  29  33  34 0
 6-311+G(2d,p)
 ****
 36  38  39  40  41 0
 6-311+G(2d,p)
 ****
 1  2  3  4  5  16  17  18  19  20  21  22  23  24  25 0
 3-21G
 ****
 27  28  30  31  32  35  37  42  43  44  45  46  47 0
 3-21G
 ****
 48  49 0
 3-21G
 ****


