%nproc=1
%NoSave
%Mem=1900MB
#P OB98/GEN NMR

erre ene a

0 1
  C      132.798     369.108     341.681
  O      132.948     367.890     340.981
  H      132.519     369.887     340.967
  H      133.739     369.391     342.160
  H      132.009     369.015     342.431
  P      133.415     366.620     341.845
  C      135.750     367.332     342.675
  O      134.364     367.239     342.983
  C      136.526     367.886     343.869
  O      136.383     366.961     344.980
  C      138.024     368.056     343.599
  O      138.495     369.216     344.288
  C      138.633     366.819     344.236
  O      140.007     366.997     344.569
  C      137.704     366.613     345.431
  N      140.823     362.884     346.939
  C      141.033     364.192     346.689
  N      140.134     365.126     346.312
  C      138.899     364.596     346.256
  C      138.528     363.285     346.484
  C      139.563     362.397     346.832
  N      139.365     361.056     347.055
  N      137.172     363.123     346.281
  C      136.730     364.322     345.947
  N      137.742     365.240     345.901
  O      134.007     365.495     341.067
  O      132.083     366.265     342.660
  H      140.275     366.275     345.173
  H      131.679     367.064     343.048
  H      142.059     364.535     346.796
  H      135.697     364.572     345.717
  H      137.964     367.256     346.281
  H      138.564     365.971     343.544
  H      138.265     368.132     342.540
  H      136.068     368.832     344.181
  H      135.897     367.985     341.808
  H      140.163     360.492     347.302
  H      138.434     360.672     346.987
  H      136.105     366.329     342.420
  P      138.316     370.653     343.602
  C      140.805     370.599     342.930
  O      139.471     370.847     342.500
  O      138.143     371.801     344.539
  O      137.010     370.451     342.695
  H      136.446     371.248     342.764
  H      141.478     370.760     342.114
  H      140.889     369.587     343.267
  H      141.051     371.263     343.732

 6  7  8  9  10  11  12  13  14  15  25  28  32  33  34  35 0
 6-311+G(2d,p)
 ****
 36  39  40 0
 6-311+G(2d,p)
 ****
 1  2  3  4  5  16  17  18  19  20  21  22  23  24 0
 3-21G
 ****
 26  27  29  30  31  37  38  41  42  43  44  45  46  47 0
 3-21G
 ****
 48 0
 3-21G
 ****


