%nproc=1
%NoSave
%Mem=1900MB
#P OB98/GEN NMR

erre ene a

0 1
  C      765.262     -89.472     509.808
  O      766.315     -89.470     510.752
  P      766.080     -90.050     512.237
  C      768.628     -90.393     512.013
  O      767.550     -90.102     512.893
  C      769.966     -90.385     512.771
  O      769.900     -91.285     513.905
  C      771.153     -90.847     511.938
  O      771.566     -89.819     511.050
  C      772.154     -91.205     513.026
  O      772.843     -90.032     513.498
  C      771.237     -91.787     514.136
  N      771.262     -93.254     514.168
  C      771.050     -93.818     515.445
  O      770.898     -93.098     516.429
  N      771.067     -95.191     515.557
  C      771.316     -95.931     514.507
  N      771.332     -97.272     514.685
  C      771.583     -95.354     513.159
  C      771.549     -94.023     513.076
  O      765.292     -91.328     512.304
  O      765.381     -88.821     512.997
  H      772.157     -89.328     513.536
  H      764.448     -88.706     512.722
  H      771.778     -96.002     512.329
  H      771.732     -93.520     512.137
  H      771.545     -91.412     515.120
  H      772.920     -91.917     512.664
  H      770.887     -91.771     511.369
  H      770.142     -89.368     513.145
  H      771.173     -97.627     515.627
  H      768.656     -89.633     511.229
  H      771.548     -97.936     513.937
  H      768.460     -91.358     511.535
  P      772.051     -90.182     509.575
  C      770.856     -88.104     508.677
  O      772.069     -88.830     508.716
  O      771.348     -91.350     508.935
  O      773.618     -90.497     509.743
  H      773.838     -91.299     509.251
  H      771.070     -87.074     508.349
  H      770.375     -88.074     509.660
  H      770.163     -88.567     507.953
  H      765.608     -89.051     508.887
  H      764.446     -88.890     510.183
  H      764.935     -90.477     509.640

 3  4  5  6  7  8  9  10  11  12  13  23  27  28  29  30  32 0
 6-311+G(2d,p)
 ****
 34  35 0
 6-311+G(2d,p)
 ****
 1  2  14  15  16  17  18  19  20  21  22  24  25  26 0
 3-21G
 ****
 31  33  36  37  38  39  40  41  42  43  44  45  46 0
 3-21G
 ****


