%nproc=1
%NoSave
%Mem=1900MB
#P OB98/GEN NMR

erre ene a

0 1
  C     -535.226     153.315     341.565
  O     -536.458     152.787     342.064
  P     -537.358     151.869     341.111
  C     -537.563     150.065     342.950
  O     -538.259     150.890     342.015
  C     -538.545     149.162     343.716
  O     -539.322     149.962     344.663
  C     -539.543     148.431     342.797
  O     -539.601     147.022     343.038
  C     -540.841     149.192     342.999
  O     -541.990     148.423     342.691
  C     -540.722     149.699     344.443
  N     -541.558     150.883     344.692
  C     -542.918     150.665     344.824
  O     -543.454     149.571     344.659
  N     -543.677     151.774     345.070
  C     -543.227     153.063     345.129
  O     -543.955     154.031     345.308
  C     -541.772     153.240     344.922
  C     -541.020     152.147     344.720
  O     -536.638     151.195     339.985
  O     -538.455     152.900     340.535
  H     -542.782     149.006     342.734
  H     -538.619     152.674     339.600
  H     -544.680     151.642     345.183
  H     -541.377     154.247     344.945
  H     -539.952     152.252     344.562
  H     -541.040     148.932     345.161
  H     -540.853     150.061     342.328
  H     -539.233     148.503     341.745
  H     -537.954     148.442     344.291
  H     -537.032     150.694     343.669
  H     -536.813     149.482     342.425
  P     -539.204     145.899     341.985
  C     -537.722     144.436     343.535
  O     -538.917     144.533     342.780
  O     -538.143     146.279     340.989
  O     -540.585     145.599     341.233
  H     -540.413     145.477     340.288
  H     -537.486     143.380     343.688
  H     -537.872     144.910     344.511
  H     -536.872     144.917     343.015
  H     -534.755     153.901     342.326
  H     -535.421     153.929     340.711
  H     -534.580     152.509     341.285

 3  4  5  6  7  8  9  10  11  12  13  23  28  29  30  31  32 0
 6-311+G(2d,p)
 ****
 33  34 0
 6-311+G(2d,p)
 ****
 1  2  14  15  16  17  18  19  20  21  22  24  25  26  27 0
 3-21G
 ****
 35  36  37  38  39  40  41  42  43  44  45 0
 3-21G
 ****


