%nproc=1
%NoSave
%Mem=1900MB
#P OB98/GEN NMR

erre ene a

0 1
  C      322.693    -375.069    -135.840
  O      321.444    -374.770    -135.241
  P      320.203    -375.728    -135.570
  C      318.488    -375.803    -137.534
  O      319.788    -375.434    -137.096
  C      318.550    -376.417    -138.940
  O      318.989    -375.397    -139.874
  C      319.512    -377.605    -139.082
  O      318.951    -378.485    -140.058
  C      320.770    -376.961    -139.629
  O      321.629    -377.895    -140.283
  C      320.168    -375.901    -140.539
  N      323.493    -373.936    -143.823
  C      322.805    -375.135    -143.866
  N      322.987    -375.888    -144.975
  N      322.008    -375.563    -142.917
  C      321.914    -374.695    -141.876
  C      322.575    -373.500    -141.696
  C      323.423    -373.026    -142.771
  O      323.982    -371.929    -142.813
  N      322.291    -372.945    -140.476
  C      321.398    -373.770    -139.955
  N      321.104    -374.814    -140.784
  O      319.012    -375.085    -134.720
  O      320.402    -377.187    -135.269
  H      321.653    -378.708    -139.744
  H      318.925    -375.520    -133.848
  H      324.079    -373.655    -144.590
  H      320.927    -373.653    -138.989
  H      319.865    -376.303    -141.518
  H      321.343    -376.502    -138.809
  H      323.562    -375.608    -145.760
  H      319.688    -378.143    -138.140
  H      322.467    -376.760    -145.052
  H      317.536    -376.713    -139.230
  H      317.855    -374.904    -137.578
  H      318.041    -376.501    -136.819
  P      319.190    -380.062    -139.871
  C      320.588    -381.883    -141.071
  O      320.354    -380.504    -140.879
  O      317.874    -380.699    -140.533
  O      319.343    -380.514    -138.454
  H      317.637    -381.528    -140.073
  H      321.096    -382.024    -142.035
  H      319.661    -382.460    -141.080
  H      321.241    -382.258    -140.273
  H      323.419    -374.348    -135.529
  H      322.594    -375.039    -136.905
  H      323.009    -376.046    -135.538

 3  4  5  6  7  8  9  10  11  12  23  26  30  31 0
 6-311+G(2d,p)
 ****
 33  35  36  37  38 0
 6-311+G(2d,p)
 ****
 1  2  13  14  15  16  17  18  19  20  21  22  24  25 0
 3-21G
 ****
 27  28  29  32  34  39  40  41  42  43  44  45  46  47  48  49 0
 3-21G
 ****


