%nproc=1
%NoSave
%Mem=1900MB
#P OB98/GEN NMR

erre ene a

0 1
  C      -97.990     202.880      44.303
  O      -99.339     202.553      44.576
  P     -100.241     201.829      43.465
  C     -100.975     202.445      41.069
  O     -100.457     202.924      42.309
  C     -102.006     203.420      40.500
  O     -103.217     203.392      41.284
  C     -101.552     204.873      40.490
  O     -100.647     205.106      39.424
  C     -102.884     205.598      40.362
  O     -103.322     205.647      38.994
  C     -103.821     204.702      41.201
  N     -104.088     205.260      42.523
  C     -105.281     205.981      42.653
  O     -106.019     206.143      41.680
  N     -105.582     206.542      43.871
  C     -104.753     206.411      44.862
  N     -105.102     207.000      46.040
  C     -103.471     205.686      44.755
  C     -103.204     205.142      43.571
  O     -101.485     201.183      43.977
  O      -99.222     200.794      42.788
  H     -104.237     205.989      39.014
  H      -99.044     200.022      43.379
  H     -102.809     205.614      45.606
  H     -102.285     204.595      43.403
  H     -104.783     204.565      40.689
  H     -102.825     206.632      40.718
  H     -101.087     205.122      41.453
  H     -102.253     203.095      39.479
  H     -105.975     207.513      46.061
  H     -101.452     201.478      41.247
  H     -104.516     206.992      46.859
  H     -100.149     202.300      40.365
  P      -99.299     205.928      39.686
  C      -98.715     208.237      40.642
  O      -99.706     207.441      40.021
  O      -98.238     205.766      38.649
  O      -98.794     205.372      41.103
  H      -97.831     205.210      41.056
  H      -98.976     209.289      40.512
  H      -97.731     208.057      40.198
  H      -98.682     208.008      41.709
  H      -97.557     203.354      45.159
  H      -97.947     203.546      43.467
  H      -97.445     201.987      44.076

 3  4  5  6  7  8  9  10  11  12  13  23  27  28  29  30  32 0
 6-311+G(2d,p)
 ****
 34  35 0
 6-311+G(2d,p)
 ****
 1  2  14  15  16  17  18  19  20  21  22  24  25  26 0
 3-21G
 ****
 31  33  36  37  38  39  40  41  42  43  44  45  46 0
 3-21G
 ****


