%nproc=1
%NoSave
%Mem=1900MB
#P OB98/GEN NMR

erre ene a

0 1
  C     -143.049      40.191     -71.280
  O     -142.484      40.483     -70.018
  H     -143.434      41.116     -71.715
  H     -143.874      39.482     -71.182
  H     -142.285      39.783     -71.948
  P     -141.989      39.272     -69.093
  C     -139.426      39.435     -69.289
  O     -140.568      39.713     -68.490
  C     -138.150      39.927     -68.602
  O     -138.227      41.370     -68.467
  C     -137.934      39.328     -67.208
  O     -136.533      39.101     -67.028
  C     -138.418      40.433     -66.293
  O     -137.841      40.334     -65.005
  C     -138.042      41.694     -67.076
  N     -138.859      42.836     -66.665
  C     -138.605      43.361     -65.393
  O     -137.721      42.874     -64.685
  N     -139.397      44.376     -64.924
  C     -140.394      44.799     -65.636
  N     -141.162      45.781     -65.094
  C     -140.717      44.256     -66.972
  C     -139.915      43.289     -67.421
  O     -142.009      37.917     -69.718
  O     -142.961      39.347     -67.822
  H     -136.997      40.834     -64.987
  H     -143.747      38.789     -67.969
  H     -141.562      44.637     -67.524
  H     -140.083      42.824     -68.386
  H     -136.983      41.947     -66.925
  H     -139.508      40.368     -66.180
  H     -138.486      38.396     -67.052
  H     -137.297      39.714     -69.258
  H     -140.917      46.103     -64.166
  H     -139.550      39.952     -70.246
  H     -141.988      46.159     -65.535
  H     -139.359      38.359     -69.478
  P     -135.978      37.634     -66.691
  C     -135.421      36.677     -69.000
  O     -134.885      37.222     -67.797
  O     -137.034      36.606     -66.449
  O     -135.094      37.852     -65.369
  H     -135.112      37.037     -64.832
  H     -134.622      36.435     -69.669
  H     -136.067      37.395     -69.460
  H     -135.977      35.791     -68.774

 6  7  8  9  10  11  12  13  14  15  16  26  30  31  32  33  35 0
 6-311+G(2d,p)
 ****
 37  38 0
 6-311+G(2d,p)
 ****
 1  2  3  4  5  17  18  19  20  21  22  23  24  25 0
 3-21G
 ****
 27  28  29  34  36  39  40  41  42  43  44  45  46 0
 3-21G
 ****


