%nproc=1
%NoSave
%Mem=1900MB
#P OB98/GEN NMR

erre ene a

0 1
  C      142.343    -929.759     -30.530
  O      141.391    -928.809     -30.988
  P      140.427    -929.255     -32.196
  C      141.165    -927.259     -33.688
  O      141.106    -928.676     -33.528
  C      141.858    -926.900     -35.000
  O      143.280    -927.099     -34.885
  C      141.429    -927.736     -36.195
  O      140.219    -927.264     -36.768
  C      142.593    -927.501     -37.142
  O      142.451    -926.229     -37.786
  C      143.789    -927.482     -36.193
  N      147.552    -930.375     -38.100
  C      147.079    -929.162     -38.460
  N      146.062    -928.464     -37.903
  C      145.499    -929.157     -36.901
  C      145.848    -930.420     -36.452
  C      146.940    -931.038     -37.083
  N      147.441    -932.261     -36.691
  N      145.041    -930.797     -35.402
  C      144.216    -929.784     -35.222
  N      144.463    -928.763     -36.094
  O      139.152    -928.308     -31.997
  O      140.062    -930.701     -32.215
  H      143.140    -926.177     -38.484
  H      138.373    -928.715     -32.410
  H      147.585    -928.691     -39.296
  H      143.443    -929.744     -34.470
  H      144.537    -926.731     -36.484
  H      142.656    -928.254     -37.942
  H      141.382    -928.803     -35.938
  H      141.692    -925.828     -35.195
  H      141.729    -926.828     -32.858
  H      148.329    -932.546     -37.073
  H      147.115    -932.648     -35.812
  H      140.152    -926.862     -33.676
  P      139.456    -928.270     -37.747
  C      139.409    -926.381     -39.537
  O      139.735    -927.723     -39.229
  O      137.907    -927.920     -37.504
  O      139.748    -929.717     -37.513
  H      137.346    -928.684     -37.706
  H      139.947    -926.088     -40.449
  H      139.716    -925.709     -38.731
  H      138.341    -926.290     -39.715
  H      142.914    -929.335     -29.730
  H      142.998    -930.024     -31.334
  H      141.835    -930.633     -30.181

 3  4  5  6  7  8  9  10  11  12  22  25  29  30  31  32 0
 6-311+G(2d,p)
 ****
 33  36  37 0
 6-311+G(2d,p)
 ****
 1  2  13  14  15  16  17  18  19  20  21  23  24  26 0
 3-21G
 ****
 27  28  34  35  38  39  40  41  42  43  44  45  46  47  48 0
 3-21G
 ****


