%nproc=1
%NoSave
%Mem=1900MB
#P OB98/GEN NMR

erre ene a

0 1
  C      -18.345      42.268    -164.351
  O      -17.223      42.146    -165.208
  P      -15.766      42.145    -164.531
  C      -15.160      44.653    -165.046
  O      -15.490      43.660    -164.086
  C      -14.176      45.661    -164.443
  O      -14.684      46.144    -163.179
  C      -12.797      45.097    -164.130
  O      -12.004      44.963    -165.303
  C      -12.278      46.117    -163.129
  O      -11.787      47.284    -163.807
  C      -13.558      46.464    -162.337
  N      -13.649      45.778    -161.051
  C      -13.425      46.560    -159.921
  O      -13.168      47.763    -159.970
  N      -13.489      45.899    -158.717
  C      -13.684      44.562    -158.542
  O      -13.690      44.019    -157.446
  C      -13.882      43.783    -159.775
  C      -13.855      44.414    -160.950
  O      -14.843      41.924    -165.823
  O      -15.617      41.116    -163.459
  H      -15.266      42.259    -166.633
  H      -11.621      47.958    -163.117
  H      -13.356      46.452    -157.879
  H      -14.032      42.714    -159.678
  H      -13.985      43.857    -161.870
  H      -13.609      47.547    -162.156
  H      -11.460      45.729    -162.509
  H      -12.896      44.121    -163.643
  H      -14.096      46.517    -165.127
  H      -16.070      45.171    -165.355
  H      -14.719      44.172    -165.924
  P      -11.260      43.552    -165.507
  C       -9.268      44.473    -164.085
  O      -10.187      43.430    -164.323
  O      -10.380      43.853    -166.812
  O      -12.193      42.394    -165.650
  H       -9.962      44.733    -166.789
  H       -8.890      44.380    -163.066
  H       -9.736      45.455    -164.199
  H       -8.434      44.388    -164.783
  H      -19.242      42.254    -164.934
  H      -18.284      43.191    -163.813
  H      -18.356      41.452    -163.660

 3  4  5  6  7  8  9  10  11  12  13  24  28  29  30  31  32 0
 6-311+G(2d,p)
 ****
 33  34 0
 6-311+G(2d,p)
 ****
 1  2  14  15  16  17  18  19  20  21  22  23  25  26  27 0
 3-21G
 ****
 35  36  37  38  39  40  41  42  43  44  45 0
 3-21G
 ****


