%nproc=1
%NoSave
%Mem=1900MB
#P OB98/GEN NMR

erre ene a

0 1
  C       -7.060     258.643     142.887
  O       -7.553     259.905     143.348
  P       -7.787     261.039     142.231
  C       -5.484     262.066     142.872
  O       -6.346     261.623     141.833
  C       -4.046     262.179     142.370
  O       -3.987     262.895     141.123
  C       -3.114     262.934     143.306
  O       -2.670     262.118     144.378
  C       -1.961     263.265     142.368
  O       -1.074     262.138     142.265
  C       -2.678     263.509     141.032
  N       -0.610     267.582     138.837
  C       -0.120     266.296     138.957
  N        1.081     266.056     138.386
  N       -0.749     265.335     139.578
  C       -1.952     265.712     140.073
  C       -2.545     266.952     140.021
  C       -1.822     268.018     139.358
  O       -2.195     269.181     139.251
  N       -3.773     266.948     140.629
  C       -3.938     265.702     141.023
  N       -2.852     264.915     140.722
  O       -8.451     262.232     143.065
  O       -8.649     260.601     141.095
  H       -0.431     262.343     141.558
  H       -9.008     262.780     142.480
  H       -0.079     268.286     138.354
  H       -4.819     265.319     141.522
  H       -2.155     263.035     140.195
  H       -1.360     264.109     142.720
  H        1.585     266.730     137.832
  H       -3.582     263.861     143.661
  H        1.439     265.109     138.433
  H       -3.665     261.161     142.204
  H       -5.522     261.368     143.710
  H       -5.845     263.030     143.245
  P       -3.555     262.123     145.717
  C       -1.936     263.788     146.874
  O       -3.250     263.527     146.427
  O       -2.815     261.051     146.646
  O       -4.993     261.788     145.510
  H       -3.452     260.637     147.258
  H       -1.195     263.471     146.134
  H       -1.758     263.266     147.818
  H       -1.827     264.863     147.039
  H       -6.947     257.979     143.718
  H       -6.112     258.783     142.411
  H       -7.752     258.224     142.187

 3  4  5  6  7  8  9  10  11  12  23  26  30  31  33  0
 6-311+G(2d,p)
 ****
 35  36  37  38 0
 6-311+G(2d,p)
 ****
 1  2  13  14  15  16  17  18  19  20  21  22  24  25  27  28  29 0
 3-21G
 ****
 32  34  39  40  41  42  43  44  45  46  47  48  49 0
 3-21G
 ****


