%nproc=1
%NoSave
%Mem=1900MB
#P OB98/GEN NMR

erre ene a

0 1
  C     -105.834     -73.448     -48.782
  O     -104.973     -72.603     -49.520
  H     -105.844     -74.436     -49.250
  H     -106.851     -73.044     -48.792
  H     -105.482     -73.546     -47.752
  P     -104.680     -71.154     -48.907
  C     -105.573     -69.952     -51.066
  O     -105.653     -70.115     -49.655
  C     -106.511     -68.836     -51.515
  O     -107.882     -69.284     -51.538
  C     -106.537     -67.638     -50.581
  O     -105.354     -66.874     -50.639
  C     -107.769     -66.911     -51.100
  O     -107.471     -66.172     -52.292
  C     -108.713     -68.099     -51.413
  N     -109.749     -68.268     -50.404
  C     -110.958     -67.602     -50.652
  O     -111.098     -66.935     -51.676
  N     -111.959     -67.689     -49.718
  C     -111.785     -68.397     -48.645
  N     -112.813     -68.434     -47.756
  C     -110.539     -69.134     -48.358
  C     -109.572     -69.022     -49.267
  O     -103.247     -70.798     -49.519
  O     -104.756     -71.064     -47.417
  H     -108.318     -65.797     -52.602
  H     -103.206     -70.875     -50.487
  H     -110.440     -69.719     -47.454
  H     -108.625     -69.531     -49.134
  H     -109.205     -67.952     -52.384
  H     -108.160     -66.196     -50.374
  H     -106.746     -67.965     -49.554
  H     -106.229     -68.544     -52.536
  H     -113.644     -67.898     -47.977
  H     -105.811     -70.888     -51.580
  H     -112.779     -68.923     -46.874
  H     -104.536     -69.695     -51.310
  P     -105.020     -65.798     -49.498
  C     -105.032     -63.856     -51.186
  O     -105.621     -64.398     -50.012
  O     -103.591     -65.743     -49.076
  O     -106.033     -66.189     -48.317
  H     -106.975     -66.147     -48.560
  H     -105.510     -62.930     -51.430
  H     -105.153     -64.544     -51.996
  H     -103.990     -63.685     -51.016

 6  7  8  9  10  11  12  13  14  15  16  26  30  31  32  33  35 0
 6-311+G(2d,p)
 ****
 37  38 0
 6-311+G(2d,p)
 ****
 1  2  3  4  5  17  18  19  20  21  22  23  24  25 0
 3-21G
 ****
 27  28  29  34  36  39  40  41  42  43  44  45  46 0
 3-21G
 ****


