%nproc=1
%NoSave
%Mem=1900MB
#P OB98/GEN NMR

erre ene a

0 1
  C     -278.481       7.292     -92.251
  O     -277.079       7.113     -92.202
  H     -278.745       8.296     -91.909
  H     -278.814       7.172     -93.284
  H     -278.980       6.542     -91.629
  P     -276.392       7.221     -90.757
  C     -275.714       9.645     -91.388
  O     -275.299       8.391     -90.866
  C     -274.502      10.455     -91.832
  O     -274.914      11.764     -92.271
  C     -273.460      10.696     -90.744
  O     -272.620       9.567     -90.558
  C     -272.695      11.868     -91.336
  O     -271.774      11.392     -92.338
  C     -273.818      12.681     -92.001
  N     -272.884      17.430     -90.335
  C     -272.238      16.640     -91.220
  N     -272.559      15.393     -91.628
  C     -273.689      14.979     -91.035
  C     -274.474      15.677     -90.131
  C     -274.027      16.960     -89.773
  N     -274.663      17.733     -88.813
  N     -275.554      14.916     -89.728
  C     -275.412      13.773     -90.366
  N     -274.307      13.766     -91.173
  O     -275.511       5.881     -90.682
  O     -277.339       7.324     -89.609
  H     -271.158      10.786     -91.887
  H     -276.007       5.201     -90.190
  H     -271.338      17.062     -91.656
  H     -276.078      12.925     -90.271
  H     -273.507      13.108     -92.962
  H     -272.111      12.420     -90.595
  H     -273.927      11.012     -89.803
  H     -274.052       9.947     -92.695
  H     -276.257      10.200     -90.615
  H     -274.036      18.364     -88.321
  H     -275.337      17.228     -88.247
  H     -276.383       9.468     -92.235
  P     -272.384       9.049     -89.059
  C     -271.133      11.171     -88.273
  O     -271.055       9.777     -88.528
  O     -271.928       7.529     -89.272
  O     -273.572       9.135     -88.161
  H     -272.519       6.934     -88.770
  H     -270.184      11.524     -87.927
  H     -271.876      11.356     -87.526
  H     -271.398      11.684     -89.174

 6  7  8  9  10  11  12  13  14  15  25  28  32  33  34  35 0
 6-311+G(2d,p)
 ****
 36  39  40 0
 6-311+G(2d,p)
 ****
 1  2  3  4  5  16  17  18  19  20  21  22  23  24 0
 3-21G
 ****
 26  27  29  30  31  37  38  41  42  43  44  45  46  47  48 0
 3-21G
 ****


