%nproc=1
%NoSave
%Mem=1900MB
#P OB98/GEN NMR

erre ene a

0 1
  C       33.977     -75.212      11.877
  O       34.554     -74.111      11.205
  H       34.747     -75.972      12.029
  H       33.178     -75.637      11.265
  H       33.582     -74.910      12.851
  P       33.698     -72.753      11.172
  C       32.633     -72.871       8.808
  O       33.633     -72.294       9.634
  C       32.356     -71.971       7.608
  O       31.405     -72.597       6.719
  C       31.775     -70.607       7.965
  O       32.794     -69.685       8.329
  C       31.135     -70.218       6.643
  O       32.154     -69.772       5.722
  C       30.551     -71.555       6.167
  N       25.731     -71.937       4.638
  C       26.865     -71.609       3.920
  N       26.687     -71.335       2.610
  N       28.064     -71.548       4.438
  C       28.087     -71.822       5.764
  C       27.032     -72.153       6.584
  C       25.716     -72.232       5.995
  O       24.681     -72.529       6.586
  N       27.442     -72.361       7.875
  C       28.740     -72.134       7.840
  N       29.180     -71.800       6.583
  O       34.694     -71.692      11.844
  O       32.394     -72.806      11.892
  H       32.638     -70.564       5.427
  H       34.412     -71.536      12.765
  H       24.830     -71.959       4.192
  H       29.404     -72.205       8.690
  H       30.575     -71.654       5.077
  H       30.421     -69.400       6.746
  H       25.789     -71.342       2.152
  H       31.002     -70.684       8.740
  H       27.505     -71.095       2.063
  H       33.295     -71.857       7.051
  H       31.715     -72.993       9.392
  H       32.976     -73.853       8.467
  P       32.767     -69.071       9.811
  C       31.395     -67.038       8.967
  O       32.554     -67.486       9.656
  O       34.294     -69.200      10.271
  O       31.850     -69.753      10.766
  H       34.371     -69.865      10.983
  H       31.386     -65.968       8.942
  H       30.521     -67.390       9.473
  H       31.405     -67.418       7.967

 6  7  8  9  10  11  12  13  14  15  26  29  33  34 0
 6-311+G(2d,p)
 ****
 36  38  39  40  41 0
 6-311+G(2d,p)
 ****
 1  2  3  4  5  16  17  18  19  20  21  22  23  24  25 0
 3-21G
 ****
 27  28  30  31  32  35  37  42  43  44  45  46  47 0
 3-21G
 ****
 48  49 0
 3-21G
 ****


