%nproc=1
%NoSave
%Mem=1900MB
#P OB98/GEN NMR

erre ene a

0 1
  C        4.377     475.103      62.089
  O        5.396     476.083      62.139
  H        4.553     474.455      61.229
  H        3.399     475.577      61.977
  H        4.397     474.497      62.996
  P        5.252     477.206      63.277
  C        6.427     478.790      61.565
  O        5.338     478.584      62.452
  C        6.145     479.980      60.653
  O        5.084     479.666      59.720
  C        5.681     481.239      61.378
  O        6.732     481.945      62.013
  C        5.093     482.012      60.210
  O        6.158     482.557      59.415
  C        4.348     480.888      59.462
  N        2.947     480.743      59.888
  C        2.029     481.656      59.360
  O        2.393     482.527      58.571
  N        0.717     481.582      59.756
  C        0.341     480.665      60.596
  N       -0.965     480.640      60.956
  C        1.277     479.675      61.172
  C        2.544     479.774      60.781
  O        6.663     477.155      64.030
  O        4.063     477.083      64.170
  H        5.744     483.121      58.733
  H        6.737     477.918      64.661
  H        0.923     478.941      61.885
  H        3.288     479.080      61.163
  H        4.360     481.060      58.380
  H        4.468     482.848      60.520
  H        4.873     481.011      62.098
  H        7.054     480.171      60.065
  H       -1.569     481.373      60.588
  H        6.555     477.880      60.968
  H       -1.321     480.064      61.713
  H        7.342     478.976      62.134
  P        6.347     482.891      63.252
  C        8.695     483.886      63.782
  O        7.395     484.104      63.259
  O        6.780     482.021      64.526
  O        4.896     483.292      63.316
  H        6.177     482.174      65.279
  H        9.264     484.790      63.712
  H        9.181     483.115      63.221
  H        8.622     483.589      64.807

 6  7  8  9  10  11  12  13  14  15  16  26  30  31  32  33  35 0
 6-311+G(2d,p)
 ****
 37  38 0
 6-311+G(2d,p)
 ****
 1  2  3  4  5  17  18  19  20  21  22  23  24  25 0
 3-21G
 ****
 27  28  29  34  36  39  40  41  42  43  44  45  46 0
 3-21G
 ****


