%nproc=1
%NoSave
%Mem=1900MB
#P OB98/GEN NMR

erre ene a

0 1
  C      188.132     130.262     -79.879
  O      188.251     130.828     -78.589
  H      187.085     130.318     -80.189
  H      188.440     129.212     -79.865
  H      188.746     130.821     -80.593
  P      189.703     130.740     -77.899
  C      189.251     132.908     -76.520
  O      189.499     131.509     -76.501
  C      189.167     133.442     -75.092
  O      187.907     133.071     -74.484
  C      190.244     132.901     -74.153
  O      191.505     133.525     -74.327
  C      189.621     133.261     -72.812
  O      189.754     134.675     -72.580
  C      188.147     132.871     -73.060
  N      187.850     131.487     -72.676
  C      187.249     131.296     -71.426
  O      186.997     132.254     -70.699
  N      186.983     130.013     -71.009
  C      187.263     129.008     -71.782
  N      186.978     127.760     -71.311
  C      187.881     129.160     -73.108
  C      188.141     130.410     -73.492
  O      190.578     131.778     -78.749
  O      190.293     129.375     -77.786
  H      190.710     134.869     -72.580
  H      191.455     131.911     -78.313
  H      188.111     128.293     -73.714
  H      188.596     130.603     -74.460
  H      187.466     133.536     -72.516
  H      190.089     132.755     -71.969
  H      190.332     131.812     -74.219
  H      189.195     134.540     -75.141
  H      186.609     127.687     -70.372
  H      188.302     133.085     -77.045
  H      187.295     126.915     -71.772
  H      190.053     133.428     -77.054
  P      192.765     132.867     -73.577
  C      194.583     133.878     -75.138
  O      194.018     133.828     -73.830
  O      193.090     131.580     -74.468
  O      192.518     132.505     -72.146
  H      193.416     130.844     -73.914
  H      195.407     134.561     -75.145
  H      193.841     134.207     -75.835
  H      194.926     132.903     -75.416

 6  7  8  9  10  11  12  13  14  15  16  26  30  31  32  33  35 0
 6-311+G(2d,p)
 ****
 37  38 0
 6-311+G(2d,p)
 ****
 1  2  3  4  5  17  18  19  20  21  22  23  24  25 0
 3-21G
 ****
 27  28  29  34  36  39  40  41  42  43  44  45  46 0
 3-21G
 ****


