%nproc=1
%NoSave
%Mem=1900MB
#P OB98/GEN NMR

erre ene a

0 1
  C     -608.202      32.214     351.584
  O     -608.255      30.831     351.205
  P     -606.999      30.028     350.614
  C     -606.889      28.113     352.355
  O     -606.266      29.281     351.836
  C     -607.656      28.434     353.640
  O     -608.752      29.337     353.357
  C     -608.324      27.244     354.315
  O     -607.391      26.401     354.964
  C     -609.301      27.945     355.257
  O     -608.664      28.323     356.483
  C     -609.688      29.200     354.452
  N     -611.059      29.162     353.967
  C     -612.048      29.588     354.854
  O     -611.761      29.896     356.011
  N     -613.347      29.641     354.411
  C     -613.643      29.202     353.226
  N     -614.943      29.295     352.835
  C     -612.645      28.619     352.309
  C     -611.385      28.631     352.738
  O     -606.081      30.864     349.786
  O     -607.625      28.834     349.753
  H     -606.999      28.567     349.057
  H     -607.773      28.650     356.253
  H     -612.938      28.227     351.348
  H     -610.584      28.234     352.123
  H     -609.549      30.098     355.065
  H     -610.150      27.303     355.520
  H     -608.888      26.672     353.565
  H     -606.966      28.930     354.335
  H     -615.601      29.710     353.482
  H     -606.111      27.376     352.581
  H     -615.272      29.004     351.927
  H     -607.555      27.689     351.595
  P     -606.661      25.295     354.062
  C     -604.225      25.787     354.814
  O     -605.171      25.808     353.766
  O     -607.395      25.415     352.647
  O     -606.745      23.902     354.599
  H     -607.517      24.530     352.260
  H     -603.224      25.685     354.380
  H     -604.399      24.950     355.499
  H     -604.274      26.725     355.368
  H     -609.160      32.521     351.948
  H     -607.937      32.807     350.734
  H     -607.470      32.345     352.353

 3  4  5  6  7  8  9  10  11  12  13  24  27  28  29  30  32 0
 6-311+G(2d,p)
 ****
 34  35 0
 6-311+G(2d,p)
 ****
 1  2  14  15  16  17  18  19  20  21  22  23  25  26 0
 3-21G
 ****
 31  33  36  37  38  39  40  41  42  43  44  45  46 0
 3-21G
 ****


