%nproc=1
%NoSave
%Mem=1900MB
#P OB98/GEN NMR

erre ene a

0 1
  C      153.127    -130.741    -101.125
  O      152.969    -131.089     -99.750
  P      152.232    -130.184     -98.663
  C      151.129    -130.675     -96.336
  O      152.090    -131.037     -97.317
  C      150.528    -131.889     -95.603
  O      149.709    -132.655     -96.524
  C      151.637    -132.827     -95.121
  O      152.307    -132.570     -93.903
  C      151.028    -134.220     -95.213
  O      150.454    -134.648     -93.978
  C      149.940    -134.058     -96.280
  N      150.229    -138.495     -98.815
  C      149.910    -138.265     -97.490
  N      149.685    -139.356     -96.725
  N      149.835    -137.074     -96.960
  C      150.168    -136.078     -97.810
  C      150.521    -136.180     -99.138
  C      150.546    -137.502     -99.731
  O      150.812    -137.760    -100.900
  N      150.814    -134.952     -99.676
  C      150.662    -134.114     -98.674
  N      150.263    -134.748     -97.518
  O      151.017    -129.463     -99.139
  O      153.344    -129.072     -98.292
  H      150.217    -135.589     -94.065
  H      152.856    -128.250     -98.083
  H      150.249    -139.431     -99.176
  H      150.821    -133.043     -98.729
  H      148.984    -134.473     -95.935
  H      151.794    -134.958     -95.471
  H      149.844    -140.300     -97.042
  H      152.426    -132.804     -95.885
  H      149.665    -139.205     -95.715
  H      149.856    -131.566     -94.802
  H      150.344    -130.115     -96.852
  H      151.573    -129.991     -95.611
  P      153.806    -132.031     -93.742
  C      155.332    -131.200     -91.858
  O      154.069    -131.749     -92.189
  O      153.756    -130.555     -94.363
  O      154.852    -132.855     -94.421
  H      154.656    -130.233     -94.551
  H      155.511    -131.340     -90.788
  H      155.336    -130.130     -92.082
  H      156.132    -131.693     -92.420
  H      153.656    -131.521    -101.632
  H      153.679    -129.828    -101.201
  H      152.164    -130.614    -101.574

 3  4  5  6  7  8  9  10  11  12  23  26  30  31 0
 6-311+G(2d,p)
 ****
 33  35  36  37  38 0
 6-311+G(2d,p)
 ****
 1  2  13  14  15  16  17  18  19  20  21  22  24  25 0
 3-21G
 ****
 27  28  29  32  34  39  40  41  42  43  44  45  46  47  48  49 0
 3-21G
 ****


