%nproc=1
%NoSave
%Mem=1900MB
#P OB98/GEN NMR

erre ene a

0 1
  C      330.054     174.907     -25.729
  O      329.641     173.718     -25.085
  H      329.887     174.799     -26.804
  H      331.117     175.096     -25.557
  H      329.462     175.754     -25.368
  P      330.021     173.527     -23.536
  C      327.663     172.799     -22.769
  O      328.664     173.815     -22.722
  C      326.261     173.413     -22.825
  O      326.061     174.077     -24.091
  C      325.140     172.389     -22.731
  O      325.019     171.780     -21.464
  C      323.956     173.147     -23.317
  O      323.267     173.950     -22.364
  C      324.645     174.056     -24.365
  N      324.360     173.629     -25.731
  C      323.169     174.093     -26.276
  O      322.372     174.807     -25.662
  N      322.892     173.683     -27.550
  C      323.653     172.825     -28.294
  O      323.330     172.458     -29.420
  C      324.888     172.344     -27.656
  C      325.185     172.763     -26.421
  O      331.198     174.320     -23.051
  O      330.206     171.944     -23.382
  H      322.914     173.347     -21.680
  H      330.693     171.721     -22.553
  H      322.037     174.017     -27.967
  H      325.518     171.664     -28.216
  H      326.091     172.422     -25.927
  H      324.294     175.090     -24.257
  H      323.219     172.465     -23.752
  H      325.362     171.578     -23.435
  H      326.179     174.163     -22.030
  H      327.756     172.199     -21.857
  H      327.834     172.153     -23.637
  P      325.478     170.277     -21.165
  C      326.952     170.928     -19.124
  O      326.900     170.327     -20.412
  O      325.283     169.284     -22.266
  O      324.475     169.874     -19.966
  H      324.272     168.925     -20.063
  H      327.954     170.888     -18.752
  H      326.303     170.400     -18.457
  H      326.638     171.949     -19.194

 6  7  8  9  10  11  12  13  14  15  16  26  31  32  33  34  35 0
 6-311+G(2d,p)
 ****
 36  37 0
 6-311+G(2d,p)
 ****
 1  2  3  4  5  17  18  19  20  21  22  23  24  25 0
 3-21G
 ****
 27  28  29  30  38  39  40  41  42  43  44  45 0
 3-21G
 ****


