%nproc=1
%NoSave
%Mem=1900MB
#P OB98/GEN NMR

erre ene a

0 1
  C      -88.548      51.159    -341.705
  O      -88.103      51.544    -342.996
  P      -88.820      52.814    -343.672
  C      -88.082      54.616    -345.402
  O      -87.686      53.617    -344.468
  C      -86.887      55.493    -345.773
  O      -86.527      56.336    -344.661
  C      -85.620      54.723    -346.126
  O      -85.706      54.160    -347.426
  C      -84.576      55.823    -345.974
  O      -84.580      56.669    -347.136
  C      -85.101      56.596    -344.753
  N      -81.615      57.870    -341.224
  C      -81.995      58.470    -342.371
  N      -82.915      58.059    -343.270
  C      -83.472      56.901    -342.882
  C      -83.170      56.162    -341.750
  C      -82.194      56.692    -340.892
  N      -81.807      56.072    -339.723
  N      -83.931      55.014    -341.697
  C      -84.688      55.063    -342.774
  N      -84.457      56.191    -343.515
  O      -89.138      53.759    -342.424
  O      -90.051      52.495    -344.462
  H      -84.022      57.448    -346.934
  H      -89.970      54.253    -342.562
  H      -81.497      59.408    -342.602
  H      -85.416      54.312    -343.057
  H      -84.970      57.683    -344.852
  H      -83.557      55.435    -345.853
  H      -85.439      53.932    -345.391
  H      -87.188      56.138    -346.610
  H      -88.857      55.246    -344.954
  H      -80.998      56.442    -339.246
  H      -82.134      55.129    -339.552
  H      -88.501      54.129    -346.287
  P      -84.733      52.930    -347.761
  C      -84.873      51.072    -349.531
  O      -85.600      52.022    -348.768
  O      -84.791      52.092    -346.399
  O      -83.374      53.313    -348.234
  H      -85.706      51.957    -346.094
  H      -85.583      50.492    -350.131
  H      -84.327      50.394    -348.871
  H      -84.176      51.582    -350.204
  H      -87.991      50.307    -341.375
  H      -89.588      50.912    -341.745
  H      -88.400      51.968    -341.021

 3  4  5  6  7  8  9  10  11  12  22  25  29  30  31  32 0
 6-311+G(2d,p)
 ****
 33  36  37 0
 6-311+G(2d,p)
 ****
 1  2  13  14  15  16  17  18  19  20  21  23  24  26 0
 3-21G
 ****
 27  28  34  35  38  39  40  41  42  43  44  45  46  47  48 0
 3-21G
 ****


