%nproc=1
%NoSave
%Mem=1900MB
#P OB98/GEN NMR

erre ene a

0 1
  C      568.872     -48.609     257.248
  O      567.752     -48.677     256.390
  H      569.215     -47.575     257.350
  H      568.584     -48.985     258.233
  H      569.685     -49.231     256.858
  P      567.946     -48.071     254.916
  C      565.365     -47.834     254.784
  O      566.630     -47.204     254.608
  C      564.245     -46.875     254.401
  O      564.133     -45.821     255.383
  C      564.442     -46.162     253.066
  O      564.109     -46.990     251.961
  C      563.458     -45.009     253.218
  O      562.121     -45.470     252.921
  C      563.573     -44.664     254.709
  N      563.774     -39.938     256.727
  C      562.762     -40.835     256.627
  N      562.777     -42.067     256.066
  C      564.000     -42.359     255.594
  C      565.127     -41.555     255.626
  C      564.977     -40.284     256.221
  N      566.011     -39.373     256.311
  N      566.208     -42.187     255.061
  C      565.744     -43.365     254.685
  N      564.412     -43.516     254.983
  O      567.780     -49.347     253.961
  O      569.245     -47.372     254.679
  H      561.525     -44.711     253.041
  H      568.387     -49.255     253.199
  H      561.812     -40.525     257.052
  H      566.334     -44.139     254.207
  H      562.588     -44.482     255.156
  H      563.667     -44.170     252.545
  H      565.459     -45.761     252.976
  H      563.302     -47.440     254.404
  H      565.248     -48.130     255.828
  H      565.907     -38.573     256.913
  H      566.921     -39.639     255.934
  H      565.328     -48.729     254.152
  P      564.136     -46.321     250.500
  C      562.507     -48.226     249.829
  O      562.803     -46.840     249.767
  O      565.302     -47.127     249.750
  O      564.379     -44.848     250.480
  H      565.679     -46.579     249.034
  H      561.597     -48.420     249.300
  H      562.396     -48.522     250.851
  H      563.305     -48.781     249.382

 6  7  8  9  10  11  12  13  14  15  25  28  32  33  34  35 0
 6-311+G(2d,p)
 ****
 36  39  40 0
 6-311+G(2d,p)
 ****
 1  2  3  4  5  16  17  18  19  20  21  22  23  24 0
 3-21G
 ****
 26  27  29  30  31  37  38  41  42  43  44  45  46  47  48 0
 3-21G
 ****


