%nproc=1
%NoSave
%Mem=1900MB
#P OB98/GEN NMR

erre ene a

0 1
  C     -286.955     -93.871    -318.383
  O     -287.097     -95.256    -318.148
  P     -286.491     -96.380    -319.109
  C     -288.704     -97.606    -319.706
  O     -287.625     -96.798    -320.170
  C     -289.510     -98.254    -320.852
  O     -289.987     -97.221    -321.744
  C     -288.596     -99.164    -321.689
  O     -288.342    -100.484    -321.275
  C     -289.115     -99.020    -323.115
  O     -289.978    -100.089    -323.500
  C     -289.878     -97.691    -323.095
  N     -288.091     -96.399    -327.654
  C     -288.896     -97.470    -327.309
  N     -289.090     -98.407    -328.271
  N     -289.439     -97.611    -326.129
  C     -289.078     -96.640    -325.248
  C     -288.295     -95.532    -325.481
  C     -287.738     -95.363    -326.804
  O     -286.955     -94.479    -327.132
  N     -288.087     -94.807    -324.338
  C     -288.700     -95.501    -323.402
  N     -289.282     -96.644    -323.897
  O     -285.679     -97.452    -318.465
  O     -285.483     -95.505    -320.022
  H     -289.482    -100.925    -323.425
  H     -284.714     -96.066    -320.237
  H     -287.635     -96.389    -328.562
  H     -288.724     -95.238    -322.346
  H     -290.908     -97.835    -323.454
  H     -288.278     -99.027    -323.827
  H     -288.569     -98.400    -329.133
  H     -287.605     -98.684    -321.690
  H     -289.527     -99.274    -327.994
  H     -290.407     -98.751    -320.470
  H     -289.345     -96.976    -319.089
  H     -288.312     -98.402    -319.052
  P     -287.255    -101.481    -321.898
  C     -288.831    -103.218    -322.940
  O     -287.906    -102.176    -323.198
  O     -287.183    -102.693    -320.854
  O     -285.907    -100.885    -322.113
  H     -286.325    -103.156    -320.950
  H     -288.961    -103.804    -323.857
  H     -289.793    -102.791    -322.652
  H     -288.470    -103.886    -322.148
  H     -287.445     -93.325    -317.604
  H     -287.397     -93.622    -319.325
  H     -285.916     -93.616    -318.398

 3  4  5  6  7  8  9  10  11  12  23  26  30  31 0
 6-311+G(2d,p)
 ****
 33  35  36  37  38 0
 6-311+G(2d,p)
 ****
 1  2  13  14  15  16  17  18  19  20  21  22  24  25 0
 3-21G
 ****
 27  28  29  32  34  39  40  41  42  43  44  45  46  47  48  49 0
 3-21G
 ****


