%nproc=1
%NoSave
%Mem=1900MB
#P OB98/GEN NMR

erre ene a

0 1
  C      248.312      30.963    -145.483
  O      247.983      31.979    -146.425
  P      247.225      33.288    -145.884
  C      248.750      34.922    -147.206
  O      248.306      34.472    -145.929
  C      250.261      35.132    -147.206
  O      250.946      33.876    -146.989
  C      250.832      35.689    -148.507
  O      250.689      37.104    -148.592
  C      252.290      35.318    -148.370
  O      252.965      36.250    -147.500
  C      252.215      33.934    -147.700
  N      255.359      31.120    -150.604
  C      255.577      32.195    -149.819
  N      254.695      32.899    -149.080
  C      253.449      32.405    -149.249
  C      253.056      31.336    -150.055
  C      254.085      30.665    -150.743
  N      253.868      29.559    -151.532
  N      251.697      31.124    -149.967
  C      251.267      32.054    -149.135
  N      252.289      32.845    -148.662
  O      247.072      32.997    -144.306
  O      245.912      33.574    -146.531
  H      252.980      37.112    -147.958
  H      246.329      33.510    -143.945
  H      256.609      32.535    -149.756
  H      250.239      32.175    -148.820
  H      253.011      33.778    -146.962
  H      252.830      35.338    -149.328
  H      250.394      35.183    -149.378
  H      250.516      35.795    -146.364
  H      248.261      35.869    -147.440
  H      254.667      29.024    -151.841
  H      252.951      29.108    -151.463
  H      248.472      34.173    -147.971
  P      250.221      37.703    -149.998
  C      248.126      38.989    -149.145
  O      248.630      37.895    -149.888
  O      250.392      36.464    -151.004
  O      250.990      38.905    -150.445
  H      250.537      36.776    -151.918
  H      247.075      39.143    -149.416
  H      248.678      39.897    -149.369
  H      248.175      38.778    -148.073
  H      248.810      30.159    -145.984
  H      247.417      30.598    -145.025
  H      248.957      31.369    -144.732

 3  4  5  6  7  8  9  10  11  12  22  25  29  30  31  32 0
 6-311+G(2d,p)
 ****
 33  36  37 0
 6-311+G(2d,p)
 ****
 1  2  13  14  15  16  17  18  19  20  21  23  24  26 0
 3-21G
 ****
 27  28  34  35  38  39  40  41  42  43  44  45  46  47  48 0
 3-21G
 ****


