%nproc=1
%NoSave
%Mem=1900MB
#P OB98/GEN NMR

erre ene a

0 1
  C      -45.535    -281.890     -98.263
  O      -46.079    -280.920     -99.148
  P      -46.898    -281.456    -100.425
  C      -44.682    -282.217    -101.548
  O      -45.856    -281.422    -101.647
  C      -44.041    -282.402    -102.920
  O      -44.839    -283.297    -103.723
  C      -43.914    -281.125    -103.736
  O      -42.775    -280.364    -103.368
  C      -43.743    -281.692    -105.136
  O      -42.382    -282.133    -105.320
  C      -44.688    -282.897    -105.110
  N      -47.422    -282.676    -109.425
  C      -46.116    -282.930    -109.199
  N      -45.460    -282.960    -108.021
  C      -46.287    -282.651    -107.008
  C      -47.633    -282.334    -107.091
  C      -48.213    -282.363    -108.369
  N      -49.550    -282.133    -108.594
  N      -48.147    -282.074    -105.838
  C      -47.135    -282.239    -105.014
  N      -45.991    -282.600    -105.672
  O      -47.890    -280.243    -100.749
  O      -47.623    -282.738    -100.214
  H      -41.807    -281.388    -105.063
  H      -48.665    -280.570    -101.247
  H      -45.521    -283.148    -110.082
  H      -47.187    -282.122    -103.940
  H      -44.283    -283.757    -105.654
  H      -43.947    -280.959    -105.921
  H      -44.835    -280.529    -103.694
  H      -43.057    -282.866    -102.773
  H      -44.947    -283.197    -101.142
  H      -49.922    -282.353    -109.506
  H      -50.170    -282.101    -107.791
  H      -43.981    -281.734    -100.861
  P      -42.994    -278.787    -103.157
  C      -43.666    -278.313    -105.621
  O      -42.717    -278.127    -104.587
  O      -41.726    -278.358    -102.281
  O      -44.287    -278.430    -102.503
  H      -41.927    -277.558    -101.758
  H      -43.490    -277.567    -106.400
  H      -44.686    -278.197    -105.247
  H      -43.546    -279.309    -106.057
  H      -45.021    -281.396     -97.465
  H      -44.850    -282.515     -98.796
  H      -46.325    -282.489     -97.861

 3  4  5  6  7  8  9  10  11  12  22  25  29  30  31  32 0
 6-311+G(2d,p)
 ****
 33  36  37 0
 6-311+G(2d,p)
 ****
 1  2  13  14  15  16  17  18  19  20  21  23  24  26 0
 3-21G
 ****
 27  28  34  35  38  39  40  41  42  43  44  45  46  47  48 0
 3-21G
 ****


