%nproc=1
%NoSave
%Mem=1900MB
#P OB98/GEN NMR

erre ene a

0 1
  C     -128.061     230.750     109.110
  O     -129.191     230.510     108.304
  P     -129.293     229.312     107.255
  C     -130.566     227.656     108.829
  O     -129.397     227.933     108.065
  C     -131.066     226.227     108.570
  O     -132.234     225.991     109.398
  C     -131.509     226.041     107.108
  O     -131.115     224.801     106.536
  C     -133.002     226.338     107.166
  O     -133.729     225.813     106.067
  C     -133.375     225.791     108.538
  N     -138.311     225.320     109.654
  C     -137.419     224.352     109.231
  N     -137.954     223.161     108.895
  N     -136.132     224.557     109.119
  C     -135.760     225.831     109.385
  C     -136.553     226.874     109.811
  C     -137.968     226.627     109.961
  O     -138.811     227.484     110.223
  N     -135.846     228.043     109.911
  C     -134.630     227.720     109.515
  N     -134.541     226.395     109.151
  O     -128.373     229.370     106.081
  O     -130.802     229.491     106.704
  H     -133.238     226.037     105.254
  H     -130.797     229.223     105.762
  H     -139.304     225.123     109.642
  H     -133.794     228.403     109.442
  H     -133.580     224.718     108.498
  H     -133.119     227.428     107.134
  H     -138.954     223.020     108.830
  H     -131.025     226.780     106.464
  H     -137.368     222.529     108.354
  H     -130.295     225.513     108.868
  H     -131.320     228.383     108.513
  H     -130.373     227.812     109.892
  P     -131.148     224.349     105.005
  C     -128.642     224.886     104.940
  O     -129.877     224.977     104.258
  O     -132.370     225.156     104.363
  O     -131.327     222.882     104.792
  H     -132.848     224.577     103.734
  H     -127.933     225.577     104.471
  H     -128.252     223.870     104.860
  H     -128.757     225.158     105.993
  H     -128.238     231.607     109.726
  H     -127.210     230.928     108.487
  H     -127.877     229.897     109.729

 3  4  5  6  7  8  9  10  11  12  23  26  30  31 0
 6-311+G(2d,p)
 ****
 33  35  36  37  38 0
 6-311+G(2d,p)
 ****
 1  2  13  14  15  16  17  18  19  20  21  22  24  25 0
 3-21G
 ****
 27  28  29  32  34  39  40  41  42  43  44  45  46  47  48  49 0
 3-21G
 ****


