%nproc=1
%NoSave
%Mem=1900MB
#P OB98/GEN NMR

erre ene a

0 1
  C     -425.387    -234.237     -61.485
  O     -424.512    -235.312     -61.792
  P     -423.368    -235.053     -62.886
  C     -421.384    -236.102     -61.507
  O     -422.257    -236.181     -62.628
  C     -421.004    -237.511     -61.038
  O     -422.135    -238.136     -60.397
  C     -420.592    -238.459     -62.155
  O     -419.275    -238.204     -62.606
  C     -420.786    -239.814     -61.474
  O     -419.659    -240.112     -60.635
  C     -422.038    -239.562     -60.616
  N     -423.265    -240.088     -61.214
  C     -423.503    -241.448     -61.031
  O     -422.743    -242.186     -60.404
  N     -424.643    -241.938     -61.609
  C     -425.513    -241.233     -62.396
  O     -426.497    -241.734     -62.926
  C     -425.190    -239.810     -62.583
  C     -424.101    -239.311     -61.989
  O     -422.722    -233.704     -62.325
  O     -423.898    -234.973     -64.279
  H     -422.833    -233.621     -61.363
  H     -419.790    -241.024     -60.305
  H     -424.849    -242.916     -61.473
  H     -425.853    -239.221     -63.204
  H     -423.845    -238.268     -62.125
  H     -421.918    -240.014     -59.627
  H     -420.886    -240.632     -62.195
  H     -421.291    -238.369     -62.998
  H     -420.201    -237.415     -60.296
  H     -421.893    -235.571     -60.701
  H     -420.489    -235.536     -61.791
  P     -419.026    -238.297     -64.194
  C     -417.398    -236.260     -64.421
  O     -417.578    -237.659     -64.460
  O     -420.048    -237.187     -64.730
  O     -419.240    -239.662     -64.757
  H     -420.050    -236.379     -64.190
  H     -416.338    -236.048     -64.263
  H     -417.972    -235.806     -63.610
  H     -417.708    -235.828     -65.380
  H     -426.093    -234.552     -60.745
  H     -425.908    -233.937     -62.370
  H     -424.820    -233.412     -61.108

 3  4  5  6  7  8  9  10  11  12  13  24  28  29  30  31  32 0
 6-311+G(2d,p)
 ****
 33  34 0
 6-311+G(2d,p)
 ****
 1  2  14  15  16  17  18  19  20  21  22  23  25  26  27 0
 3-21G
 ****
 35  36  37  38  39  40  41  42  43  44  45 0
 3-21G
 ****


