%nproc=1
%NoSave
%Mem=1900MB
#P OB98/GEN NMR

erre ene a

0 1
  C       -8.233    -135.509     263.978
  O       -8.972    -135.219     265.144
  H       -8.922    -135.862     263.207
  H       -7.506    -136.299     264.187
  H       -7.717    -134.622     263.605
  P       -8.270    -134.387     266.316
  C       -7.643    -132.053     265.409
  O       -8.621    -132.841     266.073
  C       -7.967    -130.559     265.541
  O       -6.847    -129.789     265.034
  C       -9.189    -130.174     264.702
  O       -9.882    -129.054     265.247
  C       -8.571    -129.773     263.373
  O       -9.406    -128.908     262.605
  C       -7.266    -129.126     263.830
  N       -5.731    -127.832     259.143
  C       -6.984    -127.723     259.713
  N       -7.955    -127.194     258.931
  N       -7.265    -128.114     260.928
  C       -6.217    -128.686     261.568
  C       -4.936    -128.872     261.101
  C       -4.629    -128.403     259.766
  O       -3.542    -128.497     259.206
  N       -4.148    -129.500     262.034
  C       -4.951    -129.697     263.061
  N       -6.211    -129.198     262.835
  O       -6.713    -134.450     265.943
  O       -8.523    -134.887     267.706
  H       -8.991    -128.803     261.729
  H       -6.168    -134.290     266.734
  H       -5.562    -127.488     258.215
  H       -4.668    -130.177     263.988
  H       -7.421    -128.067     264.067
  H       -8.414    -130.678     262.781
  H       -7.826    -127.067     257.940
  H       -9.889    -130.997     264.575
  H       -8.919    -127.393     259.211
  H       -8.082    -130.291     266.597
  H       -7.648    -132.356     264.360
  H       -6.649    -132.268     265.804
  P      -11.252    -129.312     266.037
  C      -10.298    -128.263     268.272
  O      -11.329    -128.357     267.314
  O      -11.062    -130.770     266.662
  O      -12.480    -129.222     265.187
  H      -11.707    -131.392     266.275
  H      -10.578    -127.562     269.030
  H       -9.398    -127.933     267.796
  H      -10.135    -129.223     268.716

 6  7  8  9  10  11  12  13  14  15  26  29  33  34 0
 6-311+G(2d,p)
 ****
 36  38  39  40  41 0
 6-311+G(2d,p)
 ****
 1  2  3  4  5  16  17  18  19  20  21  22  23  24  25 0
 3-21G
 ****
 27  28  30  31  32  35  37  42  43  44  45  46  47 0
 3-21G
 ****
 48  49 0
 3-21G
 ****


