%nproc=1
%NoSave
%Mem=1900MB
#P OB98/GEN NMR

erre ene a

0 1
  C       -1.478     276.898     152.510
  O       -0.588     275.829     152.252
  H       -1.299     277.264     153.524
  H       -2.512     276.549     152.439
  H       -1.309     277.715     151.805
  P       -0.558     275.266     150.746
  C        1.212     277.018     149.914
  O        0.887     275.662     150.172
  C        2.729     277.204     149.856
  O        3.264     277.077     151.196
  C        3.445     276.182     148.969
  O        4.529     276.837     148.305
  C        3.981     275.165     149.961
  O        5.099     274.449     149.438
  C        4.276     276.049     151.181
  N        4.283     275.288     152.430
  C        5.504     275.203     153.109
  O        6.513     275.731     152.640
  N        5.563     274.481     154.274
  C        4.514     273.843     154.693
  N        4.645     273.132     155.846
  C        3.218     273.866     153.982
  C        3.173     274.606     152.879
  O       -1.555     276.273     150.004
  O       -0.924     273.824     150.625
  H        5.340     273.747     150.083
  H       -1.447     277.201     150.274
  H        2.377     273.306     154.363
  H        2.260     274.684     152.297
  H        5.251     276.544     151.072
  H        3.202     274.432     150.206
  H        2.791     275.716     148.232
  H        2.940     278.229     149.530
  H        5.555     273.127     156.292
  H        0.796     277.664     150.695
  H        3.913     272.556     156.234
  H        0.759     277.300     148.959
  P        4.902     276.409     146.806
  C        3.600     278.241     145.541
  O        4.876     277.714     145.870
  O        4.164     275.228     146.266
  O        6.474     276.094     146.907
  H        6.663     275.317     146.344
  H        3.720     279.102     144.918
  H        3.087     278.518     146.438
  H        3.032     277.500     145.019

 6  7  8  9  10  11  12  13  14  15  16  26  30  31  32  33  35 0
 6-311+G(2d,p)
 ****
 37  38 0
 6-311+G(2d,p)
 ****
 1  2  3  4  5  17  18  19  20  21  22  23  24  25 0
 3-21G
 ****
 27  28  29  34  36  39  40  41  42  43  44  45  46 0
 3-21G
 ****


