%nproc=1
%NoSave
%Mem=1900MB
#P OB98/GEN NMR

erre ene a

0 1
  C     -153.879      17.373    -218.093
  O     -153.367      17.194    -219.419
  P     -152.656      15.794    -219.751
  C     -153.578      13.362    -219.734
  O     -153.789      14.717    -220.106
  C     -154.861      12.547    -219.949
  O     -155.957      13.095    -219.186
  C     -155.336      12.558    -221.392
  O     -154.568      11.656    -222.171
  C     -156.800      12.154    -221.251
  O     -156.966      10.726    -221.315
  C     -157.171      12.690    -219.849
  N     -158.131      13.777    -219.901
  C     -159.482      13.398    -219.909
  O     -159.796      12.204    -219.894
  N     -160.439      14.381    -219.959
  C     -160.081      15.627    -220.024
  N     -161.074      16.558    -220.078
  C     -158.669      16.065    -220.044
  C     -157.755      15.099    -219.985
  O     -152.116      15.311    -218.325
  O     -151.550      15.904    -220.748
  H     -156.597      10.383    -220.473
  H     -151.288      14.808    -218.427
  H     -158.420      17.116    -220.104
  H     -156.697      15.326    -219.996
  H     -157.607      11.886    -219.233
  H     -157.410      12.579    -222.048
  H     -155.272      13.573    -221.806
  H     -154.679      11.517    -219.617
  H     -162.032      16.221    -220.061
  H     -153.275      13.302    -218.683
  H     -160.908      17.551    -220.136
  H     -152.751      12.951    -220.322
  P     -154.031      12.170    -223.595
  C     -152.733      14.258    -224.323
  O     -153.059      13.399    -223.249
  O     -155.320      12.920    -224.184
  O     -153.500      11.144    -224.539
  H     -155.148      13.205    -225.103
  H     -152.242      15.151    -223.923
  H     -153.629      14.563    -224.869
  H     -152.034      13.757    -225.005
  H     -154.323      18.343    -218.010
  H     -153.080      17.285    -217.387
  H     -154.616      16.624    -217.891

 3  4  5  6  7  8  9  10  11  12  13  21  23  27  28  29  30  32 0
 6-311+G(2d,p)
 ****
 34  35 0
 6-311+G(2d,p)
 ****
 1  2  14  15  16  17  18  19  20  22  24  25  26 0
 3-21G
 ****
 31  33  36  37  38  39  40  41  42  43  44  45  46 0
 3-21G
 ****


