%nproc=1
%NoSave
%Mem=1900MB
#P OB98/GEN NMR

erre ene a

0 1
  C      242.272      90.910    -352.475
  O      241.688      90.796    -351.183
  P      240.086      90.834    -351.094
  C      238.387      90.478    -349.161
  O      239.725      90.306    -349.622
  C      238.187      89.779    -347.821
  O      238.346      88.363    -347.986
  C      239.187      90.180    -346.746
  O      238.831      91.407    -346.122
  C      239.053      89.014    -345.775
  O      237.906      89.218    -344.928
  C      238.813      87.823    -346.719
  N      242.387      84.910    -344.620
  C      241.301      85.542    -344.041
  N      241.132      85.344    -342.715
  N      240.465      86.298    -344.698
  C      240.736      86.370    -346.023
  C      241.778      85.794    -346.713
  C      242.728      85.001    -345.967
  O      243.739      84.471    -346.415
  N      241.712      86.086    -348.053
  C      240.611      86.801    -348.182
  N      240.001      87.031    -346.970
  O      239.637      89.623    -352.040
  O      239.460      92.125    -351.504
  H      237.141      89.368    -345.517
  H      238.735      89.783    -352.380
  H      242.988      84.326    -344.074
  H      240.224      87.176    -349.119
  H      238.028      87.163    -346.337
  H      239.920      88.902    -345.118
  H      241.666      84.674    -342.185
  H      240.210      90.211    -347.147
  H      240.322      85.774    -342.276
  H      237.160      89.973    -347.488
  H      237.693      90.046    -349.893
  H      238.177      91.551    -349.073
  P      240.012      92.195    -345.366
  C      240.337      94.664    -344.627
  O      239.498      93.705    -345.244
  O      241.170      92.266    -346.465
  O      240.468      91.547    -344.100
  H      242.044      92.339    -346.033
  H      241.389      94.485    -344.856
  H      240.192      94.633    -343.544
  H      240.065      95.658    -344.989
  H      243.338      90.870    -352.389
  H      241.984      91.842    -352.916
  H      241.933      90.104    -353.092

 3  4  5  6  7  8  9  10  11  12  23  26  30  31  33  0
 6-311+G(2d,p)
 ****
 35  36  37  38 0
 6-311+G(2d,p)
 ****
 1  2  13  14  15  16  17  18  19  20  21  22  24  25  27  28  29 0
 3-21G
 ****
 32  34  39  40  41  42  43  44  45  46  47  48  49 0
 3-21G
 ****


