%nproc=1
%NoSave
%Mem=1900MB
#P OB98/GEN NMR

erre ene a

0 1
  C      -23.263       1.085      21.610
  O      -22.600       0.155      20.779
  H      -24.143       0.605      22.045
  H      -23.591       1.938      21.010
  H      -22.610       1.427      22.417
  P      -21.092       0.495      20.353
  C      -21.614      -0.064      17.874
  O      -20.799      -0.328      19.005
  C      -21.938      -1.364      17.136
  O      -22.856      -2.147      17.957
  C      -22.599      -1.158      15.762
  O      -22.121      -2.167      14.864
  C      -24.063      -1.435      16.050
  O      -24.781      -1.821      14.884
  C      -23.943      -2.537      17.097
  N      -27.596      -5.839      18.057
  C      -26.374      -6.008      17.439
  N      -26.101      -7.233      16.941
  N      -25.492      -5.053      17.313
  C      -25.883      -3.882      17.871
  C      -27.064      -3.585      18.505
  C      -28.042      -4.647      18.624
  O      -29.149      -4.554      19.141
  N      -27.104      -2.264      18.876
  C      -25.958      -1.762      18.447
  N      -25.185      -2.705      17.830
  O      -20.233      -0.278      21.461
  O      -20.755       1.947      20.301
  H      -24.824      -1.050      14.282
  H      -20.006       0.332      22.188
  H      -28.247      -6.603      18.113
  H      -25.654      -0.730      18.541
  H      -23.699      -3.512      16.655
  H      -24.538      -0.541      16.470
  H      -26.716      -8.026      17.027
  H      -22.428      -0.168      15.330
  H      -25.191      -7.382      16.521
  H      -21.017      -1.950      17.038
  H      -21.080       0.607      17.194
  H      -22.536       0.428      18.200
  P      -22.115      -1.839      13.296
  C      -23.572      -3.865      12.559
  O      -22.316      -3.208      12.484
  O      -20.585      -1.465      13.010
  O      -23.031      -0.726      12.907
  H      -20.536      -0.775      12.323
  H      -23.544      -4.756      11.967
  H      -24.337      -3.215      12.189
  H      -23.781      -4.119      13.577

 6  7  8  9  10  11  12  13  14  15  26  29  33  34 0
 6-311+G(2d,p)
 ****
 36  38  39  40  41 0
 6-311+G(2d,p)
 ****
 1  2  3  4  5  16  17  18  19  20  21  22  23  24  25 0
 3-21G
 ****
 27  28  30  31  32  35  37  42  43  44  45  46  47 0
 3-21G
 ****
 48  49 0
 3-21G
 ****


