%nproc=1
%NoSave
%Mem=1900MB
#P OB98/GEN NMR

erre ene a

0 1
  C      517.967    -287.461    -266.390
  O      516.697    -288.007    -266.068
  P      515.794    -288.536    -267.284
  C      514.106    -290.084    -266.042
  O      514.343    -288.814    -266.664
  C      513.086    -289.944    -264.914
  O      513.719    -289.382    -263.754
  C      511.929    -289.013    -265.246
  O      510.999    -289.655    -266.089
  C      511.390    -288.705    -263.853
  O      510.453    -289.704    -263.427
  C      512.669    -288.731    -262.985
  N      513.083    -287.410    -262.544
  C      512.669    -287.051    -261.250
  O      511.982    -287.821    -260.577
  N      513.012    -285.807    -260.784
  C      513.687    -284.993    -261.528
  N      514.009    -283.772    -261.012
  C      514.136    -285.332    -262.899
  C      513.789    -286.551    -263.342
  O      516.375    -289.997    -267.563
  O      515.820    -287.672    -268.509
  H      509.725    -289.691    -264.087
  H      516.228    -290.262    -268.492
  H      514.697    -284.629    -263.477
  H      514.068    -286.882    -264.328
  H      512.511    -289.354    -262.101
  H      510.866    -287.739    -263.825
  H      512.297    -288.098    -265.723
  H      512.710    -290.947    -264.659
  H      513.694    -283.569    -260.073
  H      515.050    -290.453    -265.623
  H      514.564    -283.091    -261.501
  H      513.758    -290.793    -266.803
  P      510.472    -288.858    -267.369
  C      510.689    -290.470    -269.363
  O      509.848    -289.983    -268.329
  O      511.845    -288.494    -268.131
  O      509.633    -287.649    -267.116
  H      511.656    -287.905    -268.880
  H      510.198    -291.321    -269.844
  H      511.656    -290.785    -268.958
  H      510.842    -289.683    -270.122
  H      518.459    -287.150    -265.492
  H      517.839    -286.619    -267.037
  H      518.560    -288.203    -266.883

 3  4  5  6  7  8  9  10  11  12  13  21  23  27  28  29  30  32 0
 6-311+G(2d,p)
 ****
 34  35 0
 6-311+G(2d,p)
 ****
 1  2  14  15  16  17  18  19  20  22  24  25  26 0
 3-21G
 ****
 31  33  36  37  38  39  40  41  42  43  44  45  46 0
 3-21G
 ****


