%nproc=1
%NoSave
%Mem=1900MB
#P OB98/GEN NMR

erre ene a

0 1
  C      479.491     273.374     374.404
  O      480.196     273.386     375.633
  H      478.416     273.473     374.588
  H      479.824     274.221     373.798
  H      479.694     272.447     373.862
  P      479.825     272.234     376.688
  C      478.222     272.204     378.741
  O      478.548     272.794     377.487
  C      477.264     273.125     379.497
  O      477.972     274.311     379.947
  C      476.103     273.634     378.656
  O      475.042     272.692     378.572
  C      475.692     274.865     379.444
  O      474.947     274.464     380.610
  C      477.056     275.441     379.852
  N      478.171     280.377     379.074
  C      477.703     279.719     380.158
  N      477.450     278.402     380.297
  C      477.743     277.747     379.156
  C      478.235     278.282     377.981
  C      478.446     279.671     377.958
  N      478.887     280.349     376.844
  N      478.389     277.296     377.019
  C      478.020     276.180     377.626
  N      477.592     276.402     378.905
  O      480.996     272.325     377.779
  O      479.652     270.862     376.129
  H      475.518     273.848     381.115
  H      480.996     271.530     378.343
  H      477.502     280.330     381.037
  H      478.037     275.193     377.177
  H      477.031     275.929     380.834
  H      475.051     275.541     378.876
  H      476.432     273.947     377.650
  H      476.907     272.597     380.388
  H      479.139     272.072     379.321
  H      478.867     281.358     376.881
  H      478.959     279.858     375.967
  H      477.749     271.236     378.576
  P      473.820     273.043     377.594
  C      471.347     272.960     378.426
  O      472.629     273.586     378.539
  O      473.297     271.601     377.139
  O      474.172     273.910     376.438
  H      472.941     271.628     376.237
  H      470.664     273.421     379.108
  H      471.436     271.920     378.659
  H      470.983     273.071     377.426

 6  7  8  9  10  11  12  13  14  15  25  28  32  33  34  35 0
 6-311+G(2d,p)
 ****
 36  39  40 0
 6-311+G(2d,p)
 ****
 1  2  3  4  5  16  17  18  19  20  21  22  23  24 0
 3-21G
 ****
 26  27  29  30  31  37  38  41  42  43  44  45  46  47 0
 3-21G
 ****
 48 0
 3-21G
 ****


