%nproc=1
%NoSave
%Mem=1900MB
#P OB98/GEN NMR

erre ene a

0 1
  C      224.111    -665.826     -58.399
  O      224.397    -666.677     -57.311
  H      225.024    -665.289     -58.670
  H      223.349    -665.099     -58.107
  H      223.767    -666.393     -59.267
  P      223.353    -667.831     -56.939
  C      224.900    -669.782     -56.255
  O      224.036    -668.747     -55.811
  C      226.275    -669.229     -56.645
  O      226.890    -668.600     -55.492
  C      227.201    -670.369     -57.084
  O      228.183    -669.933     -58.023
  C      227.896    -670.751     -55.782
  O      229.132    -671.428     -55.991
  C      228.033    -669.385     -55.111
  N      231.065    -669.644     -51.021
  C      231.396    -669.712     -52.362
  N      232.703    -669.904     -52.646
  N      230.519    -669.628     -53.330
  C      229.239    -669.517     -52.896
  C      228.788    -669.461     -51.594
  C      229.769    -669.517     -50.537
  O      229.533    -669.476     -49.330
  N      227.418    -669.366     -51.543
  C      227.044    -669.375     -52.808
  N      228.116    -669.453     -53.666
  O      223.375    -668.791     -58.223
  O      221.961    -667.372     -56.622
  H      229.551    -671.551     -55.122
  H      222.537    -669.283     -58.293
  H      231.781    -669.697     -50.320
  H      226.019    -669.319     -53.158
  H      228.931    -668.868     -55.468
  H      227.239    -671.433     -55.236
  H      233.378    -670.150     -51.942
  H      226.653    -671.206     -57.504
  H      232.919    -670.252     -53.585
  H      226.166    -668.455     -57.413
  H      224.424    -670.252     -57.124
  H      224.995    -670.551     -55.483
  P      227.826    -670.068     -59.579
  C      229.044    -667.811     -60.138
  O      228.887    -669.195     -60.402
  O      226.455    -669.260     -59.725
  O      227.699    -671.479     -60.044
  H      225.707    -669.878     -59.818
  H      229.794    -667.407     -60.785
  H      229.341    -667.674     -59.119
  H      228.116    -667.308     -60.310

 6  7  8  9  10  11  12  13  14  15  26  29  33  34 0
 6-311+G(2d,p)
 ****
 36  38  39  40  41 0
 6-311+G(2d,p)
 ****
 1  2  3  4  5  16  17  18  19  20  21  22  23  24  25 0
 3-21G
 ****
 27  28  30  31  32  35  37  42  43  44  45  46  47 0
 3-21G
 ****
 48  49 0
 3-21G
 ****


