%nproc=1
%NoSave
%Mem=1900MB
#P OB98/GEN NMR

erre ene a

0 1
  C      298.583    -837.973     421.275
  O      298.683    -837.709     419.871
  P      298.504    -836.183     419.409
  C      300.934    -835.910     418.449
  O      299.958    -835.505     419.426
  C      302.292    -835.291     418.732
  O      302.858    -835.810     419.952
  C      303.345    -835.598     417.681
  O      303.220    -834.741     416.526
  C      304.631    -835.275     418.420
  O      304.869    -833.862     418.390
  C      304.300    -835.728     419.858
  N      307.464    -838.221     422.925
  C      307.158    -836.869     422.879
  N      307.757    -836.077     423.807
  N      306.339    -836.347     422.023
  C      305.779    -837.284     421.161
  C      306.050    -838.646     421.109
  C      306.959    -839.197     422.057
  O      307.317    -840.386     422.123
  N      305.273    -839.236     420.121
  C      304.578    -838.261     419.604
  N      304.856    -837.043     420.198
  O      297.770    -835.493     420.669
  O      297.716    -836.014     418.157
  H      305.234    -833.641     417.524
  H      297.252    -834.723     420.387
  H      308.145    -838.575     423.628
  H      303.857    -838.362     418.814
  H      304.643    -835.009     420.605
  H      305.516    -835.762     417.988
  H      308.348    -836.421     424.546
  H      303.328    -836.671     417.379
  H      307.518    -835.083     423.806
  H      302.173    -834.211     418.836
  H      300.593    -835.606     417.436
  H      300.977    -837.017     418.441
  P      302.098    -835.142     415.427
  C      300.671    -833.048     416.069
  O      300.729    -834.466     415.925
  O      301.881    -836.729     415.687
  O      302.484    -834.858     414.010
  H      301.634    -837.179     414.892
  H      301.164    -832.539     415.263
  H      301.164    -832.783     417.048
  H      299.632    -832.739     416.137
  H      298.720    -839.019     421.452
  H      297.617    -837.675     421.626
  H      299.338    -837.422     421.796

 3  4  5  6  7  8  9  10  11  12  23  26  30  31  33  0
 6-311+G(2d,p)
 ****
 35  36  37  38 0
 6-311+G(2d,p)
 ****
 1  2  13  14  15  16  17  18  19  20  21  22  24  25  27  28  29 0
 3-21G
 ****
 32  34  39  40  41  42  43  44  45  46  47  48  49 0
 3-21G
 ****


