%nproc=1
%NoSave
%Mem=1900MB
#P OB98/GEN NMR

erre ene a

0 1
  C       16.751     440.926    -897.710
  O       16.365     441.421    -896.450
  H       16.207     439.992    -897.900
  H       17.825     440.711    -897.730
  H       16.501     441.636    -898.510
  P       16.940     442.837    -895.970
  C       14.620     443.938    -895.810
  O       15.893     443.950    -896.450
  C       13.560     444.592    -896.700
  O       13.291     443.728    -897.830
  C       12.227     444.861    -895.980
  O       11.700     446.101    -896.440
  C       11.345     443.708    -896.450
  O        9.955     444.050    -896.420
  C       11.875     443.474    -897.870
  N        8.307     440.381    -899.660
  C        8.257     441.731    -899.400
  N        7.074     442.350    -899.600
  N        9.276     442.421    -898.940
  C       10.403     441.670    -898.790
  C       10.577     440.325    -899.030
  C        9.439     439.571    -899.510
  O        9.408     438.375    -899.760
  N       11.854     439.925    -898.730
  C       12.453     441.037    -898.310
  N       11.608     442.112    -898.320
  O       18.360     443.120    -896.340
  O       16.745     442.816    -894.370
  H        9.816     444.783    -897.060
  H       17.585     442.600    -893.920
  H        7.482     439.896    -900.000
  H       13.474     441.102    -897.980
  H       11.418     444.146    -898.610
  H       11.500     442.835    -895.820
  H        6.252     441.894    -899.960
  H       12.327     444.872    -894.890
  H        7.020     443.358    -899.440
  H       13.975     445.524    -897.100
  H       14.701     444.486    -894.870
  H       14.330     442.895    -895.590
  P       11.568     447.317    -895.410
  C       13.547     448.582    -896.480
  O       13.008     448.025    -895.280
  O       10.906     446.996    -894.110
  O       10.723     448.407    -896.240
  H       10.192     448.933    -895.610
  H       14.500     449.022    -896.272
  H       12.882     449.332    -896.855
  H       13.663     447.809    -897.211

 6  7  8  9  10  11  12  13  14  15  26  29  33  34 0
 6-311+G(2d,p)
 ****
 36  38  39  40  41 0
 6-311+G(2d,p)
 ****
 1  2  3  4  5  16  17  18  19  20  21  22  23  24  25 0
 3-21G
 ****
 27  28  30  31  32  35  37  42  43  44  45  46  47 0
 3-21G
 ****
 48  49 0
 3-21G
 ****


