%nproc=1
%NoSave
%Mem=1900MB
#P OB98/GEN NMR

erre ene a

0 1
  C       33.394     -45.255      57.708
  O       32.183     -45.780      58.209
  H       34.013     -44.940      58.553
  H       33.197     -44.385      57.077
  H       33.939     -46.012      57.138
  P       31.142     -46.439      57.184
  C       30.127     -44.089      56.894
  O       29.868     -45.468      57.127
  C       28.896     -43.426      56.283
  O       29.101     -42.001      56.166
  C       28.567     -43.915      54.877
  O       27.969     -45.195      54.915
  C       27.662     -42.790      54.397
  O       26.333     -42.937      54.922
  C       28.354     -41.551      55.013
  N       29.222     -40.855      54.062
  C       28.602     -40.343      52.927
  O       27.399     -40.458      52.706
  N       29.428     -39.730      52.022
  C       30.789     -39.664      52.102
  O       31.503     -39.304      51.172
  C       31.379     -40.154      53.356
  C       30.584     -40.732      54.258
  O       30.830     -47.879      57.414
  O       31.829     -46.210      55.754
  H       32.256     -47.039      55.466
  H       26.002     -43.797      54.599
  H       28.995     -39.397      51.173
  H       32.450     -40.061      53.486
  H       31.001     -41.127      55.177
  H       27.606     -40.836      55.378
  H       27.575     -42.762      53.310
  H       29.473     -43.926      54.261
  H       28.047     -43.591      56.960
  H       30.969     -44.006      56.198
  H       30.398     -43.610      57.840
  P       28.259     -46.278      53.775
  C       26.703     -45.140      52.087
  O       26.984     -46.333      52.805
  O       28.719     -47.609      54.269
  O       29.380     -45.593      52.857
  H       30.136     -46.205      52.766
  H       25.838     -45.287      51.475
  H       27.540     -44.891      51.468
  H       26.520     -44.343      52.777

 6  7  8  9  10  11  12  13  14  15  16  27  31  32  33  34  35 0
 6-311+G(2d,p)
 ****
 36  37 0
 6-311+G(2d,p)
 ****
 1  2  3  4  5  17  18  19  20  21  22  23  24  25 0
 3-21G
 ****
 26  28  29  30  38  39  40  41  42  43  44  45 0
 3-21G
 ****


