%nproc=1
%NoSave
%Mem=1900MB
#P OB98/GEN NMR

erre ene a

0 1
  C      164.202    -274.048      29.160
  O      163.650    -272.766      29.364
  H      164.025    -274.652      30.054
  H      165.280    -273.960      29.004
  H      163.748    -274.550      28.302
  P      163.356    -271.843      28.090
  C      164.122    -269.724      29.357
  O      164.285    -270.535      28.199
  C      165.220    -268.667      29.466
  O      166.513    -269.314      29.476
  C      165.224    -267.696      28.283
  O      164.360    -266.577      28.439
  C      166.686    -267.257      28.239
  O      166.919    -266.122      29.090
  C      167.444    -268.486      28.763
  N      171.806    -270.105      26.639
  C      171.626    -269.173      27.649
  N      172.745    -268.583      28.113
  N      170.452    -268.853      28.128
  C      169.419    -269.452      27.495
  C      169.477    -270.375      26.471
  C      170.784    -270.785      25.995
  O      170.996    -271.617      25.120
  N      168.215    -270.739      26.049
  C      167.411    -269.972      26.758
  N      168.089    -269.233      27.701
  O      161.895    -271.251      28.387
  O      163.384    -272.543      26.766
  H      166.725    -266.387      30.011
  H      161.425    -271.105      27.546
  H      172.732    -270.334      26.332
  H      166.332    -269.943      26.657
  H      168.229    -268.194      29.473
  H      166.971    -266.952      27.225
  H      173.663    -268.729      27.722
  H      164.998    -268.223      27.351
  H      172.641    -267.761      28.718
  H      165.122    -268.139      30.422
  H      164.161    -270.399      30.213
  H      163.139    -269.252      29.355
  P      163.196    -266.289      27.384
  C      161.349    -265.629      29.127
  O      162.166    -265.259      28.039
  O      162.380    -267.663      27.358
  O      163.650    -265.884      26.017
  H      162.644    -268.206      26.594
  H      160.737    -264.799      29.412
  H      161.965    -265.918      29.953
  H      160.726    -266.451      28.842

 6  7  8  9  10  11  12  13  14  15  26  29  33  34 0
 6-311+G(2d,p)
 ****
 36  38  39  40  41 0
 6-311+G(2d,p)
 ****
 1  2  3  4  5  16  17  18  19  20  21  22  23  24  25 0
 3-21G
 ****
 27  28  30  31  32  35  37  42  43  44  45  46  47 0
 3-21G
 ****
 48  49 0
 3-21G
 ****


