%nproc=1
%NoSave
%Mem=1900MB
#P OB98/GEN NMR

erre ene a

0 1
  C      198.583    -411.312    -866.385
  O      197.462    -411.357    -865.523
  H      198.308    -410.871    -867.344
  H      199.354    -410.688    -865.921
  H      198.988    -412.315    -866.535
  P      196.210    -412.236    -866.010
  C      195.119    -410.009    -866.798
  O      195.468    -411.351    -867.123
  C      195.236    -409.131    -868.037
  O      196.570    -409.227    -868.594
  C      194.295    -409.524    -869.183
  O      192.983    -409.013    -868.982
  C      194.984    -408.853    -870.356
  O      194.704    -407.435    -870.327
  C      196.460    -409.104    -870.041
  N      198.308    -411.159    -874.353
  C      197.860    -409.918    -874.067
  N      197.377    -409.451    -872.886
  C      197.391    -410.418    -871.961
  C      197.809    -411.724    -872.103
  C      198.302    -412.096    -873.374
  N      198.747    -413.359    -873.675
  N      197.642    -412.440    -870.929
  C      197.162    -411.554    -870.086
  N      196.977    -410.317    -870.652
  O      195.201    -412.186    -864.768
  O      196.527    -413.636    -866.432
  H      193.748    -407.343    -870.171
  H      194.572    -412.924    -864.815
  H      197.883    -409.209    -874.885
  H      196.921    -411.756    -869.042
  H      197.107    -408.279    -870.350
  H      194.646    -409.228    -871.312
  H      194.281    -410.618    -869.341
  H      195.072    -408.082    -867.735
  H      195.802    -409.643    -866.025
  H      198.903    -413.565    -874.648
  H      198.605    -414.103    -873.002
  H      194.090    -409.989    -866.411
  P      191.789    -410.079    -868.847
  C      190.156    -408.951    -870.541
  O      191.024    -410.055    -870.251
  O      190.769    -409.349    -867.846
  O      192.199    -411.428    -868.351
  H      190.222    -410.004    -867.359
  H      189.723    -409.083    -871.511
  H      190.718    -408.041    -870.522
  H      189.379    -408.906    -869.807

 6  7  8  9  10  11  12  13  14  15  25  28  32  33  34  35 0
 6-311+G(2d,p)
 ****
 36  39  40 0
 6-311+G(2d,p)
 ****
 1  2  3  4  5  16  17  18  19  20  21  22  23  24 0
 3-21G
 ****
 26  27  29  30  31  37  38  41  42  43  44  45  46  47 0
 3-21G
 ****
 48 0
 3-21G
 ****


