%nproc=1
%NoSave
%Mem=1900MB
#P OB98/GEN NMR

erre ene a

0 1
  C      365.043     837.960     144.433
  O      364.824     836.865     145.294
  H      364.301     837.933     143.627
  H      366.045     837.893     143.993
  H      364.940     838.906     144.979
  P      365.688     836.818     146.642
  C      365.949     834.205     146.733
  O      365.397     835.381     147.295
  C      365.360     832.954     147.389
  O      365.620     833.020     148.818
  C      363.850     832.815     147.209
  O      363.537     831.421     147.079
  C      363.279     833.344     148.515
  O      361.970     832.834     148.777
  C      364.364     832.895     149.511
  N      364.344     833.684     150.742
  C      363.320     833.394     151.657
  O      362.487     832.525     151.400
  N      363.240     834.134     152.817
  C      364.068     835.108     153.017
  N      363.919     835.820     154.165
  C      365.128     835.484     152.050
  C      365.199     834.734     150.960
  O      364.882     837.829     147.590
  O      367.133     837.159     146.461
  H      362.011     831.859     148.779
  H      363.919     837.705     147.557
  H      365.790     836.319     152.258
  H      365.965     834.929     150.195
  H      364.226     831.833     149.779
  H      363.208     834.430     148.488
  H      363.470     833.345     146.331
  H      365.890     832.081     147.009
  H      363.164     835.541     154.785
  H      367.039     834.196     146.844
  H      364.466     836.637     154.404
  H      365.720     834.206     145.649
  P      362.993     830.855     145.676
  C      360.948     829.341     146.203
  O      362.349     829.399     145.914
  O      363.938     830.954     144.532
  O      361.690     831.767     145.422
  H      361.666     831.984     144.470
  H      360.654     828.321     146.338
  H      360.398     829.766     145.390
  H      360.745     829.892     147.097

 6  7  8  9  10  11  12  13  14  15  16  26  30  31  32  33  35 0
 6-311+G(2d,p)
 ****
 37  38 0
 6-311+G(2d,p)
 ****
 1  2  3  4  5  17  18  19  20  21  22  23  24  25 0
 3-21G
 ****
 27  28  29  34  36  39  40  41  42  43  44  45  46 0
 3-21G
 ****


