%nproc=1
%NoSave
%Mem=1900MB
#P OB98/GEN NMR

erre ene a

0 1
  C        2.599     254.841     -58.331
  O        2.330     256.111     -58.898
  P        1.019     256.900     -58.423
  C        0.007     256.692     -60.811
  O       -0.178     256.499     -59.417
  C        0.224     258.177     -61.117
  O        0.343     258.358     -62.562
  C       -0.913     259.091     -60.634
  O       -0.329     260.343     -60.246
  C       -1.737     259.280     -61.894
  O       -2.585     260.417     -61.840
  C       -0.619     259.366     -62.939
  N       -1.098     259.168     -64.306
  C       -1.220     260.299     -65.110
  O       -0.950     261.441     -64.737
  N       -1.732     260.086     -66.362
  C       -2.207     258.902     -66.847
  O       -2.760     258.802     -67.937
  C       -2.052     257.744     -65.954
  C       -1.514     257.925     -64.745
  O        1.345     258.417     -58.812
  O        0.694     256.751     -56.975
  H       -2.902     260.591     -62.746
  H        1.638     258.914     -58.023
  H       -1.818     260.893     -66.962
  H       -2.398     256.783     -66.316
  H       -1.407     257.090     -64.057
  H       -0.110     260.336     -62.867
  H       -2.367     258.398     -62.056
  H       -1.495     258.666     -59.807
  H        1.180     258.490     -60.670
  H       -0.880     256.344     -61.342
  H        0.860     256.097     -61.155
  P       -0.905     261.063     -58.929
  C       -1.933     262.934     -60.441
  O       -2.120     261.992     -59.405
  O        0.276     262.102     -58.619
  O       -1.182     260.122     -57.801
  H        0.605     262.546     -59.422
  H       -1.222     262.572     -61.191
  H       -1.561     263.871     -60.015
  H       -2.893     263.123     -60.927
  H        3.502     254.448     -58.749
  H        1.788     254.176     -58.545
  H        2.709     254.940     -57.271

 3  4  5  6  7  8  9  10  11  12  13  23  28  29  30  31  32 0
 6-311+G(2d,p)
 ****
 33  34 0
 6-311+G(2d,p)
 ****
 1  2  14  15  16  17  18  19  20  21  22  24  25  26 0
 3-21G
 ****
 27  35  36  37  38  39  40  41  42  43  44  45 0
 3-21G
 ****


