%nproc=1
%NoSave
%Mem=1900MB
#P OB98/GEN NMR

erre ene a

0 1
  C       81.901    -453.711     227.057
  O       82.843    -452.667     227.208
  H       82.142    -454.521     227.751
  H       80.908    -453.325     227.299
  H       81.897    -454.087     226.032
  P       84.314    -452.917     226.622
  C       83.851    -452.841     224.069
  O       84.121    -453.650     225.205
  C       85.125    -452.606     223.263
  O       85.663    -453.897     222.861
  C       84.928    -451.763     221.992
  O       86.060    -450.900     221.840
  C       84.941    -452.799     220.883
  O       85.342    -452.256     219.629
  C       85.915    -453.825     221.446
  N       87.694    -456.872     217.786
  C       88.216    -455.782     218.383
  N       87.697    -455.059     219.395
  C       86.550    -455.600     219.828
  C       85.895    -456.714     219.326
  C       86.512    -457.355     218.237
  N       85.953    -458.425     217.576
  N       84.710    -456.926     220.003
  C       84.638    -455.946     220.883
  N       85.727    -455.116     220.814
  O       84.869    -454.082     227.574
  O       85.217    -451.727     226.611
  H       84.681    -451.600     219.343
  H       85.285    -453.688     228.361
  H       89.175    -455.437     217.992
  H       83.817    -455.770     221.562
  H       86.967    -453.537     221.297
  H       83.939    -453.226     220.771
  H       84.008    -451.167     221.997
  H       85.872    -452.140     223.922
  H       83.459    -451.871     224.405
  H       86.413    -458.754     216.739
  H       85.024    -458.726     217.829
  H       83.093    -453.331     223.446
  P       85.777    -449.378     221.416
  C       85.307    -448.437     223.798
  O       84.798    -448.722     222.503
  O       84.854    -449.523     220.120
  O       87.015    -448.594     221.125
  H       85.022    -448.794     219.502
  H       84.533    -448.006     224.398
  H       86.122    -447.748     223.717
  H       85.649    -449.342     224.254

 6  7  8  9  10  11  12  13  14  15  25  28  32  33  34  35 0
 6-311+G(2d,p)
 ****
 36  39  40 0
 6-311+G(2d,p)
 ****
 1  2  3  4  5  16  17  18  19  20  21  22  23  24 0
 3-21G
 ****
 26  27  29  30  31  37  38  41  42  43  44  45  46  47 0
 3-21G
 ****
 48 0
 3-21G
 ****


