%nproc=1
%NoSave
%Mem=1900MB
#P OB98/GEN NMR

erre ene a

0 1
  C     1875.760    -318.665    -130.621
  O     1875.039    -319.663    -131.386
  P     1875.882    -320.673    -132.337
  C     1876.174    -322.372    -130.402
  O     1876.848    -321.595    -131.403
  C     1877.087    -323.540    -129.953
  O     1877.359    -324.463    -131.110
  C     1878.464    -323.081    -129.427
  O     1878.919    -323.943    -128.391
  C     1879.360    -323.271    -130.652
  O     1880.729    -323.342    -130.242
  C     1878.765    -324.554    -131.221
  N     1881.504    -327.335    -134.597
  C     1881.270    -327.502    -133.263
  N     1880.501    -326.716    -132.438
  C     1879.925    -325.731    -133.142
  C     1880.028    -325.451    -134.501
  C     1880.860    -326.312    -135.250
  N     1881.073    -326.154    -136.590
  N     1879.267    -324.315    -134.844
  C     1878.767    -323.899    -133.682
  N     1879.145    -324.757    -132.610
  O     1876.580    -320.048    -133.480
  O     1874.772    -321.745    -132.833
  H     1881.289    -323.234    -131.002
  H     1874.895    -321.860    -133.774
  H     1881.776    -328.319    -132.781
  H     1878.187    -323.020    -133.613
  H     1879.089    -325.444    -130.671
  H     1879.213    -322.450    -131.340
  H     1878.474    -322.052    -129.049
  H     1876.557    -324.137    -129.210
  H     1875.235    -322.791    -130.806
  H     1881.750    -326.725    -137.030
  H     1880.756    -325.341    -137.098
  H     1875.896    -321.736    -129.559
  P     1879.340    -323.253    -127.000
  C     1877.366    -324.417    -125.660
  O     1878.061    -323.163    -126.097
  O     1880.101    -321.953    -127.207
  O     1880.254    -324.403    -126.336
  H     1879.841    -325.266    -126.285
  H     1876.559    -324.103    -125.012
  H     1878.086    -325.027    -125.231
  H     1876.925    -324.843    -126.590
  H     1875.067    -318.084    -130.050
  H     1876.298    -318.024    -131.288
  H     1876.448    -319.150    -129.960

 3  4  5  6  7  8  9  10  11  12  22  25  29  30  31  32 0
 6-311+G(2d,p)
 ****
 33  36  37 0
 6-311+G(2d,p)
 ****
 1  2  13  14  15  16  17  18  19  20  21  23  24  26 0
 3-21G
 ****
 27  28  34  35  38  39  40  41  42  43  44  45  46  47  48 0
 3-21G
 ****


