%nproc=1
%NoSave
%Mem=1900MB
#P OB98/GEN NMR

erre ene a

0 1
  C     -776.948     -59.461     -25.759
  O     -775.530     -59.464     -25.904
  P     -774.816     -60.876     -26.227
  C     -775.098     -63.290     -25.319
  O     -775.341     -61.901     -25.125
  C     -775.419     -64.066     -24.046
  O     -776.763     -63.797     -23.595
  C     -775.349     -65.593     -24.206
  O     -774.015     -66.075     -24.130
  C     -776.155     -66.041     -22.993
  O     -775.328     -65.997     -21.811
  C     -777.258     -64.986     -22.936
  N     -781.890     -66.872     -22.077
  C     -780.954     -66.355     -21.183
  N     -781.292     -66.409     -19.878
  N     -779.808     -65.825     -21.534
  C     -779.609     -65.866     -22.886
  C     -780.463     -66.318     -23.871
  C     -781.717     -66.908     -23.455
  O     -782.544     -67.421     -24.192
  N     -779.903     -66.173     -25.116
  C     -778.736     -65.593     -24.897
  N     -778.499     -65.423     -23.558
  O     -773.294     -60.616     -25.790
  O     -774.932     -61.326     -27.647
  H     -774.506     -66.475     -22.035
  H     -772.723     -61.300     -26.189
  H     -782.743     -67.253     -21.748
  H     -778.036     -65.311     -25.663
  H     -777.490     -64.691     -21.896
  H     -776.512     -67.071     -23.094
  H     -782.125     -66.850     -19.526
  H     -775.847     -65.905     -25.126
  H     -780.606     -66.097     -19.186
  H     -774.725     -63.740     -23.257
  H     -774.055     -63.432     -25.582
  H     -775.724     -63.655     -26.148
  P     -773.709     -67.433     -24.921
  C     -774.931     -69.718     -25.093
  O     -774.824     -68.476     -24.441
  O     -772.351     -67.957     -24.228
  O     -773.547     -67.268     -26.402
  H     -771.851     -68.512     -24.833
  H     -775.538     -70.393     -24.489
  H     -773.943     -70.172     -25.226
  H     -775.399     -69.599     -26.077
  H     -777.283     -58.467     -25.549
  H     -777.226     -60.109     -24.954
  H     -777.400     -59.805     -26.666

 3  4  5  6  7  8  9  10  11  12  23  26  30  31 0
 6-311+G(2d,p)
 ****
 33  35  36  37  38 0
 6-311+G(2d,p)
 ****
 1  2  13  14  15  16  17  18  19  20  21  22  24  25 0
 3-21G
 ****
 27  28  29  32  34  39  40  41  42  43  44  45  46  47  48  49 0
 3-21G
 ****


