%nproc=1
%NoSave
%Mem=1900MB
#P OB98/GEN NMR

erre ene a

0 1
  C     -126.310    -143.004    -791.706
  O     -125.544    -144.188    -791.601
  H     -125.728    -142.157    -791.341
  H     -126.562    -142.841    -792.760
  H     -127.240    -143.095    -791.134
  P     -125.221    -144.713    -790.120
  C     -123.090    -144.722    -788.619
  O     -123.650    -144.446    -789.900
  C     -121.982    -143.725    -788.291
  O     -120.980    -143.781    -789.352
  C     -122.468    -142.271    -788.188
  O     -121.763    -141.622    -787.128
  C     -122.070    -141.665    -789.523
  O     -121.906    -140.255    -789.448
  C     -120.792    -142.429    -789.836
  N     -118.575    -139.841    -793.642
  C     -118.626    -139.628    -792.311
  N     -119.230    -140.363    -791.358
  C     -119.786    -141.454    -791.913
  C     -119.834    -141.814    -793.243
  C     -119.201    -140.938    -794.147
  N     -119.180    -141.132    -795.511
  N     -120.537    -142.999    -793.414
  C     -120.921    -143.340    -792.202
  N     -120.492    -142.448    -791.259
  O     -125.309    -146.304    -790.293
  O     -126.124    -144.212    -789.038
  H     -121.764    -139.902    -790.352
  H     -126.245    -146.579    -790.280
  H     -118.109    -138.739    -791.963
  H     -121.507    -144.218    -791.964
  H     -119.908    -142.009    -789.326
  H     -122.843    -141.883    -790.275
  H     -123.545    -142.203    -788.006
  H     -121.483    -144.042    -787.370
  H     -122.684    -145.745    -788.613
  H     -118.741    -140.424    -796.083
  H     -119.683    -141.908    -795.903
  H     -123.888    -144.647    -787.864
  P     -122.656    -141.000    -785.935
  C     -123.510    -138.686    -785.207
  O     -122.750    -139.414    -786.140
  O     -121.716    -141.176    -784.643
  O     -123.962    -141.707    -785.755
  H     -122.212    -141.600    -783.920
  H     -123.488    -137.647    -785.462
  H     -123.099    -138.822    -784.228
  H     -124.521    -139.035    -785.221

 6  7  8  9  10  11  12  13  14  15  25  28  32  33  34  35 0
 6-311+G(2d,p)
 ****
 36  39  40 0
 6-311+G(2d,p)
 ****
 1  2  3  4  5  16  17  18  19  20  21  22  23  24 0
 3-21G
 ****
 26  27  29  30  31  37  38  41  42  43  44  45  46  47 0
 3-21G
 ****
 48 0
 3-21G
 ****


