%nproc=1
%NoSave
%Mem=1900MB
#P OB98/GEN NMR

erre ene a

0 1
  C     -441.049     645.520    -200.309
  O     -440.379     646.654    -199.785
  H     -440.650     645.269    -201.296
  H     -440.878     644.675    -199.634
  H     -442.123     645.713    -200.372
  P     -440.527     648.016    -200.621
  C     -438.557     647.440    -202.209
  O     -439.949     647.715    -202.086
  C     -437.822     648.684    -202.706
  O     -436.432     648.371    -202.961
  C     -438.358     649.259    -204.017
  O     -439.520     650.050    -203.804
  C     -437.178     650.113    -204.456
  O     -437.178     651.351    -203.722
  C     -435.976     649.248    -204.031
  N     -432.373     648.908    -207.649
  C     -432.597     649.818    -206.683
  N     -433.565     649.833    -205.738
  C     -434.350     648.744    -205.855
  C     -434.232     647.721    -206.777
  C     -433.192     647.827    -207.720
  N     -433.020     646.914    -208.754
  N     -435.237     646.784    -206.592
  C     -435.951     647.247    -205.593
  N     -435.455     648.430    -205.107
  O     -439.417     648.964    -199.952
  O     -441.884     648.646    -200.578
  H     -437.921     651.883    -204.073
  H     -439.843     649.543    -199.292
  H     -431.908     650.662    -206.659
  H     -436.832     646.777    -205.182
  H     -435.157     649.850    -203.624
  H     -437.203     650.366    -205.521
  H     -438.529     648.475    -204.761
  H     -437.854     649.441    -201.907
  H     -438.408     646.622    -202.918
  H     -432.585     647.318    -209.579
  H     -433.809     646.295    -208.901
  H     -438.168     647.139    -201.228
  P     -440.684     649.977    -204.908
  C     -440.077     652.318    -205.827
  O     -440.229     650.933    -206.119
  O     -441.885     650.781    -204.220
  O     -441.111     648.599    -205.297
  H     -442.682     650.214    -204.176
  H     -439.774     652.838    -206.712
  H     -439.334     652.443    -205.067
  H     -441.009     652.714    -205.483

 6  7  8  9  10  11  12  13  14  15  25  28  32  33  34  35 0
 6-311+G(2d,p)
 ****
 36  39  40 0
 6-311+G(2d,p)
 ****
 1  2  3  4  5  16  17  18  19  20  21  22  23  24 0
 3-21G
 ****
 26  27  29  30  31  37  38  41  42  43  44  45  46  47  48 0
 3-21G
 ****


