%nproc=1
%NoSave
%Mem=1900MB
#P OB98/GEN NMR

erre ene a

0 1
  C      775.324    -285.352    -899.426
  O      774.724    -285.329    -898.106
  P      775.105    -286.449    -897.056
  C      775.966    -284.942    -895.096
  O      776.284    -285.933    -896.066
  C      777.023    -284.902    -893.986
  O      777.002    -286.150    -893.206
  C      778.488    -284.700    -894.476
  O      779.162    -283.979    -893.446
  C      778.990    -286.148    -894.506
  O      780.423    -286.212    -894.496
  C      778.339    -286.728    -893.266
  N      778.272    -288.196    -893.206
  C      779.402    -288.874    -892.826
  O      780.497    -288.348    -892.586
  N      779.303    -290.234    -892.776
  C      778.203    -290.984    -893.126
  O      778.164    -292.187    -893.076
  C      777.018    -290.191    -893.536
  C      777.138    -288.852    -893.596
  O      775.922    -287.515    -897.966
  O      773.961    -287.123    -896.366
  H      780.711    -285.609    -893.766
  H      775.617    -288.423    -897.776
  H      780.135    -290.744    -892.506
  H      776.113    -290.733    -893.806
  H      776.250    -288.267    -893.886
  H      778.842    -286.349    -892.356
  H      778.643    -286.630    -895.436
  H      778.527    -284.200    -895.436
  H      776.739    -284.096    -893.246
  H      774.982    -285.190    -894.666
  H      775.877    -283.965    -895.586
  P      779.322    -282.350    -893.646
  C      777.875    -281.486    -891.666
  O      778.014    -281.690    -893.056
  O      779.089    -282.255    -895.246
  O      780.660    -281.825    -893.206
  H      778.335    -282.794    -895.546
  H      778.831    -281.155    -891.216
  H      777.553    -282.433    -891.206
  H      777.123    -280.721    -891.476
  H      774.955    -284.527    -900.000
  H      775.072    -286.269    -899.917
  H      776.388    -285.277    -899.336

 3  4  5  6  7  8  9  10  11  12  13  23  28  29  30  31  32 0
 6-311+G(2d,p)
 ****
 33  34 0
 6-311+G(2d,p)
 ****
 1  2  14  15  16  17  18  19  20  21  22  24  25  26 0
 3-21G
 ****
 27  35  36  37  38  39  40  41  42  43  44  45 0
 3-21G
 ****


