%nproc=1
%NoSave
%Mem=1900MB
#P OB98/GEN NMR

erre ene a

0 1
  C       -4.008     131.289    -548.299
  O       -4.579     132.570    -548.089
  P       -5.643     132.715    -546.892
  C       -4.137     133.664    -544.986
  O       -4.820     132.540    -545.522
  C       -4.784     134.091    -543.660
  O       -6.151     134.485    -543.880
  C       -4.835     132.996    -542.608
  O       -3.562     132.795    -542.009
  C       -5.892     133.565    -541.672
  O       -5.319     134.576    -540.828
  C       -6.886     134.213    -542.661
  N      -11.867     133.340    -541.822
  C      -11.021     134.277    -541.339
  N       -9.705     134.430    -541.592
  C       -9.271     133.489    -542.451
  C      -10.015     132.465    -543.005
  C      -11.372     132.403    -542.667
  N      -12.233     131.445    -543.158
  N       -9.222     131.679    -543.822
  C       -8.028     132.229    -543.763
  N       -8.013     133.339    -542.963
  O       -6.484     131.363    -546.991
  O       -6.509     133.933    -546.968
  H       -4.760     135.144    -541.392
  H       -7.419     131.514    -546.736
  H      -11.455     134.995    -540.650
  H       -7.152     131.875    -544.290
  H       -7.291     135.163    -542.293
  H       -6.344     132.811    -541.015
  H       -5.187     132.054    -543.050
  H       -4.229     134.961    -543.285
  H       -4.200     134.502    -545.690
  H      -13.149     131.386    -542.750
  H      -11.834     130.668    -543.672
  H       -3.086     133.413    -544.847
  P       -3.293     131.378    -541.308
  C       -2.761     130.442    -543.642
  O       -3.570     130.313    -542.477
  O       -4.597     131.220    -540.393
  O       -1.977     131.262    -540.612
  H       -5.412     131.405    -540.878
  H       -3.008     129.633    -544.337
  H       -1.707     130.379    -543.383
  H       -2.968     131.399    -544.134
  H       -3.323     131.334    -549.120
  H       -4.783     130.585    -548.520
  H       -3.487     130.981    -547.416

 3  4  5  6  7  8  9  10  11  12  22  25  29  30  31  32 0
 6-311+G(2d,p)
 ****
 33  36  37 0
 6-311+G(2d,p)
 ****
 1  2  13  14  15  16  17  18  19  20  21  23  24  26 0
 3-21G
 ****
 27  28  34  35  38  39  40  41  42  43  44  45  46  47  48 0
 3-21G
 ****


