%nproc=1
%NoSave
%Mem=1900MB
#P OB98/GEN NMR

erre ene a

0 1
  C      -81.337    -459.294     191.389
  O      -82.195    -460.157     192.119
  P      -83.182    -459.506     193.205
  C      -85.170    -459.520     191.516
  O      -84.344    -458.759     192.383
  C      -86.636    -459.088     191.642
  O      -86.710    -457.654     191.412
  C      -87.600    -459.750     190.647
  O      -88.862    -459.875     191.309
  C      -87.702    -458.730     189.529
  O      -88.879    -458.895     188.739
  C      -87.645    -457.433     190.330
  N      -89.121    -453.319     187.771
  C      -89.883    -454.290     188.393
  N      -91.225    -454.111     188.379
  N      -89.376    -455.350     188.980
  C      -88.016    -455.384     188.919
  C      -87.160    -454.512     188.298
  C      -87.730    -453.328     187.689
  O      -87.096    -452.401     187.199
  N      -85.857    -454.937     188.377
  C      -85.912    -456.026     189.116
  N      -87.201    -456.317     189.508
  O      -82.307    -458.305     193.806
  O      -83.689    -460.435     194.268
  H      -88.855    -458.223     188.024
  H      -81.840    -458.578     194.613
  H      -89.572    -452.514     187.354
  H      -85.081    -456.641     189.403
  H      -88.615    -457.159     190.765
  H      -86.835    -458.826     188.864
  H      -91.674    -453.300     187.981
  H      -87.255    -460.731     190.303
  H      -91.799    -454.791     188.868
  H      -86.960    -459.271     192.676
  H      -85.098    -460.578     191.794
  H      -84.824    -459.410     190.481
  P      -89.852    -461.042     190.824
  C      -89.335    -462.565     192.862
  O      -89.324    -462.422     191.454
  O      -89.500    -461.187     189.269
  O      -91.305    -460.752     191.016
  H      -90.307    -461.449     188.770
  H      -89.339    -463.634     193.112
  H      -90.210    -462.096     193.313
  H      -88.429    -462.112     193.279
  H      -80.745    -459.871     190.710
  H      -80.695    -458.772     192.067
  H      -81.924    -458.588     190.840

 3  4  5  6  7  8  9  10  11  12  23  26  30  31 0
 6-311+G(2d,p)
 ****
 33  35  36  37  38 0
 6-311+G(2d,p)
 ****
 1  2  13  14  15  16  17  18  19  20  21  22  24  25 0
 3-21G
 ****
 27  28  29  32  34  39  40  41  42  43  44  45  46  47  48  49 0
 3-21G
 ****


