%nproc=1
%NoSave
%Mem=1900MB
#P OB98/GEN NMR

erre ene a

0 1
  C       12.713      19.229     -24.885
  O       12.395      18.554     -23.688
  H       12.106      18.810     -25.693
  H       13.769      19.076     -25.124
  H       12.505      20.299     -24.809
  P       12.788      19.234     -22.294
  C       15.128      18.146     -22.269
  O       14.388      19.360     -22.245
  C       16.612      18.376     -21.984
  O       17.149      19.359     -22.895
  C       16.855      18.926     -20.578
  O       16.918      17.955     -19.550
  C       18.197      19.632     -20.748
  O       19.286      18.709     -20.580
  C       18.136      20.133     -22.192
  N       19.799      24.861     -23.181
  C       20.513      23.680     -23.136
  N       21.848      23.783     -23.320
  N       19.966      22.515     -22.911
  C       18.639      22.579     -22.650
  C       17.827      23.691     -22.653
  C       18.434      24.971     -22.957
  O       17.847      26.047     -23.003
  N       16.528      23.366     -22.346
  C       16.570      22.076     -22.085
  N       17.825      21.548     -22.282
  O       12.501      18.079     -21.219
  O       12.036      20.484     -21.956
  H       19.298      18.415     -19.651
  H       12.305      18.475     -20.351
  H       20.268      25.725     -23.386
  H       15.722      21.473     -21.778
  H       19.091      19.980     -22.710
  H       18.335      20.422     -20.003
  H       22.327      24.667     -23.379
  H       16.100      19.679     -20.328
  H       22.431      22.994     -23.033
  H       17.161      17.442     -22.153
  H       15.001      17.721     -23.267
  H       14.707      17.431     -21.557
  P       16.288      18.268     -18.112
  C       18.575      19.129     -17.217
  O       17.206      19.393     -17.434
  O       16.628      16.945     -17.280
  O       14.828      18.561     -18.116
  H       15.864      16.339     -17.284
  H       19.034      19.980     -16.760
  H       19.052      18.926     -18.153
  H       18.677      18.280     -16.574

 6  7  8  9  10  11  12  13  14  15  26  29  33  34 0
 6-311+G(2d,p)
 ****
 36  38  39  40  41 0
 6-311+G(2d,p)
 ****
 1  2  3  4  5  16  17  18  19  20  21  22  23  24  25 0
 3-21G
 ****
 27  28  30  31  32  35  37  42  43  44  45  46  47 0
 3-21G
 ****
 48  49 0
 3-21G
 ****


