%nproc=1
%NoSave
%Mem=1900MB
#P OB98/GEN NMR

erre ene a

0 1
  C      100.813      88.749      44.946
  O       99.485      88.347      44.594
  P       99.265      87.417      43.307
  C       99.749      84.939      43.835
  O       98.770      85.967      43.788
  C       99.176      83.660      44.473
  O       98.580      83.976      45.758
  C       98.098      82.990      43.602
  O       98.334      81.596      43.393
  C       96.800      83.345      44.311
  O       95.744      82.439      44.025
  C       97.232      83.459      45.778
  N       96.324      84.304      46.559
  C       95.142      83.711      46.994
  O       94.807      82.569      46.692
  N       94.317      84.512      47.740
  C       94.516      85.828      48.026
  O       93.721      86.511      48.660
  C       95.752      86.419      47.484
  C       96.586      85.637      46.786
  O      100.381      87.411      42.312
  O       97.930      88.032      42.648
  H       95.949      81.582      44.455
  H       98.036      88.014      41.676
  H       93.464      84.094      48.080
  H       95.935      87.467      47.668
  H       97.497      86.049      46.369
  H       97.253      82.477      46.260
  H       96.475      84.335      43.966
  H       98.082      83.409      42.589
  H      100.015      82.976      44.638
  H      100.602      85.273      44.428
  H      100.134      84.755      42.826
  P       99.404      81.004      42.363
  C      101.286      80.338      44.019
  O      100.278      79.900      43.126
  O      100.197      82.014      41.594
  O       98.501      80.130      41.362
  H       98.827      80.252      40.444
  H      102.006      79.528      44.160
  H      100.834      80.576      44.989
  H      101.813      81.222      43.638
  H      100.780      89.361      45.823
  H      101.243      89.305      44.139
  H      101.409      87.882      45.139

 3  4  5  6  7  8  9  10  11  12  13  23  28  29  30  31  32 0
 6-311+G(2d,p)
 ****
 33  34 0
 6-311+G(2d,p)
 ****
 1  2  14  15  16  17  18  19  20  21  22  24  25  26  27 0
 3-21G
 ****
 35  36  37  38  39  40  41  42  43  44  45 0
 3-21G
 ****


