%nproc=1
%NoSave
%Mem=1900MB
#P OB98/GEN NMR

erre ene a

0 1
  C     -203.790    -897.010    -174.643
  O     -202.785    -896.480    -175.488
  P     -201.958    -895.140    -175.197
  C     -199.746    -896.360    -175.908
  O     -200.434    -895.540    -174.959
  C     -198.227    -896.080    -175.954
  O     -197.991    -894.790    -176.578
  C     -197.633    -896.010    -174.563
  O     -197.290    -897.190    -173.856
  C     -196.519    -894.990    -174.657
  O     -195.249    -895.600    -174.886
  C     -196.936    -894.140    -175.869
  N     -195.527    -889.470    -174.269
  C     -194.743    -890.600    -174.472
  N     -193.441    -890.500    -174.165
  N     -195.222    -891.730    -174.928
  C     -196.572    -891.720    -175.106
  C     -197.447    -890.670    -174.924
  C     -196.908    -889.400    -174.499
  O     -197.553    -888.380    -174.319
  N     -198.747    -891.050    -175.193
  C     -198.645    -892.340    -175.519
  N     -197.329    -892.790    -175.484
  O     -202.568    -894.210    -174.211
  O     -201.934    -894.400    -176.648
  H     -194.645    -894.910    -175.214
  H     -201.954    -893.430    -176.443
  H     -195.117    -888.610    -173.967
  H     -199.483    -892.970    -175.786
  H     -196.105    -894.020    -176.558
  H     -196.419    -894.410    -173.715
  H     -193.040    -889.700    -173.705
  H     -198.412    -895.530    -173.901
  H     -192.904    -891.350    -174.084
  H     -197.729    -896.830    -176.602
  H     -200.203    -896.170    -176.887
  H     -199.926    -897.420    -175.677
  P     -197.431    -897.460    -172.267
  C     -199.327    -899.050    -172.854
  O     -198.898    -898.030    -172.014
  O     -197.489    -895.980    -171.643
  O     -196.301    -898.240    -171.664
  H     -197.316    -896.010    -170.683
  H     -200.418    -899.150    -172.771
  H     -198.878    -900.000    -172.548
  H     -199.071    -898.850    -173.895
  H     -204.180    -897.909    -175.073
  H     -204.579    -896.295    -174.535
  H     -203.371    -897.226    -173.682

 3  4  5  6  7  8  9  10  11  12  23  26  30  31 0
 6-311+G(2d,p)
 ****
 33  35  36  37  38 0
 6-311+G(2d,p)
 ****
 1  2  13  14  15  16  17  18  19  20  21  22  24  25 0
 3-21G
 ****
 27  28  29  32  34  39  40  41  42  43  44  45  46  47  48  49 0
 3-21G
 ****


