%nproc=1
%NoSave
%Mem=1900MB
#P OB98/GEN NMR

erre ene a

0 1
  C     -562.844     487.081      24.402
  O     -562.663     487.133      25.799
  H     -563.126     488.075      24.046
  H     -563.650     486.382      24.158
  H     -561.921     486.775      23.902
  P     -562.089     485.822      26.523
  C     -563.398     486.138      28.746
  O     -562.129     486.111      28.100
  C     -563.323     486.949      30.043
  O     -562.242     486.423      30.860
  C     -563.055     488.439      29.823
  O     -563.817     489.183      30.781
  C     -561.577     488.598      30.124
  O     -561.225     489.919      30.535
  C     -561.362     487.513      31.199
  N     -559.965     487.094      31.262
  C     -559.083     487.965      31.908
  O     -559.486     489.033      32.370
  N     -557.753     487.635      31.950
  C     -557.323     486.571      31.340
  N     -555.990     486.319      31.396
  C     -558.223     485.661      30.593
  C     -559.515     485.974      30.598
  O     -560.526     485.862      26.185
  O     -562.730     484.534      26.111
  H     -560.245     489.990      30.536
  H     -560.157     484.959      26.112
  H     -557.816     484.804      30.072
  H     -560.249     485.369      30.078
  H     -561.664     487.893      32.183
  H     -560.994     488.350      29.226
  H     -563.309     488.780      28.814
  H     -564.256     486.793      30.604
  H     -555.408     486.971      31.908
  H     -563.690     485.109      28.983
  H     -555.547     485.539      30.909
  H     -564.142     486.568      28.066
  P     -565.192     489.834      30.252
  C     -564.768     491.688      32.025
  O     -565.714     490.852      31.375
  O     -566.224     488.613      30.321
  O     -565.095     490.403      28.876
  H     -566.446     488.314      29.412
  H     -565.270     492.304      32.742
  H     -564.282     492.307      31.300
  H     -564.040     491.083      32.523

 6  7  8  9  10  11  12  13  14  15  16  26  30  31  32  33  35 0
 6-311+G(2d,p)
 ****
 37  38 0
 6-311+G(2d,p)
 ****
 1  2  3  4  5  17  18  19  20  21  22  23  24  25 0
 3-21G
 ****
 27  28  29  34  36  39  40  41  42  43  44  45  46 0
 3-21G
 ****


