%nproc=1
%NoSave
%Mem=1900MB
#P OB98/GEN NMR

erre ene a

0 1
  C        8.599     703.093     126.873
  O        8.532     704.509     126.894
  P        7.142     705.256     127.158
  C        7.289     705.892     124.667
  O        6.447     705.426     125.718
  C        6.548     706.908     123.806
  O        5.310     706.359     123.294
  C        6.124     708.168     124.559
  O        7.151     709.017     125.034
  C        5.117     708.759     123.588
  O        5.764     709.489     122.546
  C        4.439     707.493     123.023
  N        3.094     707.286     123.578
  C        2.042     707.816     122.835
  O        2.200     708.420     121.771
  N        0.799     707.652     123.370
  C        0.513     707.070     124.569
  O       -0.624     707.005     125.020
  C        1.665     706.555     125.328
  C        2.887     706.684     124.801
  O        7.231     706.507     127.959
  O        6.225     704.109     127.831
  H        6.398     710.105     122.967
  H        6.097     703.323     127.277
  H        0.016     708.034     122.860
  H        1.467     706.073     126.277
  H        3.751     706.306     125.335
  H        4.347     707.553     121.934
  H        4.436     709.459     124.091
  H        5.556     707.853     125.449
  H        7.179     707.153     122.937
  H        7.579     705.042     124.040
  H        8.202     706.322     125.088
  P        6.978     709.952     126.332
  C        6.544     711.969     124.766
  O        6.135     711.245     125.912
  O        8.198     710.154     127.161
  O        5.894     709.119     127.185
  H        6.057     709.269     128.138
  H        5.894     712.837     124.660
  H        6.456     711.352     123.874
  H        7.573     712.320     124.881
  H        9.606     702.786     126.683
  H        7.960     702.717     126.101
  H        8.281     702.707     127.819

 3  4  5  6  7  8  9  10  11  12  13  23  28  29  30  31  32 0
 6-311+G(2d,p)
 ****
 33  34 0
 6-311+G(2d,p)
 ****
 1  2  14  15  16  17  18  19  20  21  22  24  25  26  27 0
 3-21G
 ****
 35  36  37  38  39  40  41  42  43  44  45 0
 3-21G
 ****


