%nproc=1
%NoSave
%Mem=1900MB
#P OB98/GEN NMR

erre ene a

0 1
  C     -213.213    -341.282     243.042
  O     -213.334    -341.996     241.827
  H     -212.181    -340.948     243.174
  H     -213.863    -340.403     243.002
  H     -213.516    -341.901     243.893
  P     -212.709    -343.471     241.780
  C     -210.597    -342.631     240.525
  O     -211.115    -343.284     241.674
  C     -209.089    -342.387     240.682
  O     -208.414    -343.681     240.686
  C     -208.469    -341.539     239.556
  O     -207.486    -340.675     240.135
  C     -207.770    -342.573     238.688
  O     -206.685    -342.027     237.949
  C     -207.343    -343.602     239.733
  N     -203.674    -346.853     238.384
  C     -203.670    -345.783     239.211
  N     -204.714    -345.000     239.559
  C     -205.858    -345.455     239.010
  C     -206.016    -346.534     238.151
  C     -204.845    -347.241     237.827
  N     -204.822    -348.290     236.929
  N     -207.335    -346.647     237.756
  C     -207.953    -345.640     238.346
  N     -207.100    -344.893     239.111
  O     -213.124    -343.975     240.314
  O     -213.178    -344.405     242.841
  H     -206.071    -341.577     238.566
  H     -214.010    -344.386     240.346
  H     -202.708    -345.521     239.641
  H     -208.999    -345.393     238.230
  H     -206.428    -343.314     240.260
  H     -208.492    -343.006     237.982
  H     -209.200    -340.948     238.994
  H     -208.913    -341.928     241.655
  H     -211.099    -341.663     240.408
  H     -203.922    -348.666     236.673
  H     -205.663    -348.520     236.426
  H     -210.791    -343.243     239.642
  P     -207.926    -339.169     240.459
  C     -207.081    -338.104     238.231
  O     -208.195    -338.406     239.071
  O     -206.573    -338.495     240.994
  O     -209.034    -339.059     241.462
  H     -206.774    -337.815     241.670
  H     -207.424    -337.599     237.352
  H     -206.588    -339.012     237.952
  H     -206.396    -337.475     238.760

 6  7  8  9  10  11  12  13  14  15  25  28  32  33  34  35 0
 6-311+G(2d,p)
 ****
 36  39  40 0
 6-311+G(2d,p)
 ****
 1  2  3  4  5  16  17  18  19  20  21  22  23  24 0
 3-21G
 ****
 26  27  29  30  31  37  38  41  42  43  44  45  46  47 0
 3-21G
 ****
 48 0
 3-21G
 ****


