%nproc=1
%NoSave
%Mem=1900MB
#P OB98/GEN NMR

erre ene a

0 1
  C      616.402    -775.192     129.762
  O      616.581    -773.796     129.945
  P      617.961    -773.315     130.616
  C      617.502    -770.933     129.621
  O      617.865    -771.723     130.764
  C      616.726    -769.703     130.080
  O      615.423    -770.092     130.565
  C      617.379    -768.928     131.217
  O      618.384    -768.066     130.699
  C      616.189    -768.188     131.821
  O      615.871    -767.019     131.048
  C      615.070    -769.243     131.702
  N      611.914    -770.398     135.484
  C      611.839    -769.393     134.541
  N      610.737    -768.592     134.590
  N      612.763    -769.172     133.634
  C      613.813    -770.010     133.716
  C      614.005    -771.050     134.616
  C      612.956    -771.307     135.584
  O      612.924    -772.256     136.375
  N      615.203    -771.687     134.409
  C      615.709    -771.063     133.361
  N      614.905    -770.065     132.899
  O      619.032    -773.543     129.449
  O      618.324    -774.035     131.883
  H      616.686    -766.536     130.826
  H      619.512    -774.388     129.582
  H      611.169    -770.524     136.150
  H      616.652    -771.311     132.884
  H      614.095    -768.791     131.473
  H      616.374    -767.856     132.839
  H      610.000    -768.690     135.272
  H      617.809    -769.609     131.961
  H      610.672    -767.856     133.909
  H      616.573    -769.054     129.196
  H      616.885    -771.537     128.955
  H      618.422    -770.640     129.098
  P      619.363    -767.350     131.763
  C      621.342    -767.281     130.070
  O      620.467    -766.555     130.917
  O      620.173    -768.576     132.403
  O      618.662    -766.554     132.815
  H      620.344    -768.401     133.354
  H      621.634    -766.638     129.234
  H      620.856    -768.185     129.685
  H      622.233    -767.567     130.635
  H      615.449    -775.373     129.310
  H      616.446    -775.685     130.711
  H      617.176    -775.571     129.128

 3  4  5  6  7  8  9  10  11  12  23  26  30  31 0
 6-311+G(2d,p)
 ****
 33  35  36  37  38 0
 6-311+G(2d,p)
 ****
 1  2  13  14  15  16  17  18  19  20  21  22  24  25 0
 3-21G
 ****
 27  28  29  32  34  39  40  41  42  43  44  45  46  47  48  49 0
 3-21G
 ****


