%nproc=1
%NoSave
%Mem=1900MB
#P OB98/GEN NMR

erre ene a

0 1
  C     -184.197    -127.037    -655.055
  O     -184.013    -128.449    -655.208
  P     -184.670    -129.393    -654.074
  C     -184.145    -130.110    -651.661
  O     -183.713    -129.393    -652.788
  C     -183.458    -129.617    -650.369
  O     -182.017    -129.717    -650.467
  C     -183.802    -128.158    -650.020
  O     -183.830    -128.053    -648.586
  C     -182.590    -127.402    -650.536
  O     -182.486    -126.119    -649.921
  C     -181.462    -128.394    -650.225
  N     -180.249    -128.157    -650.997
  C     -179.314    -127.285    -650.444
  O     -179.550    -126.690    -649.391
  N     -178.137    -127.059    -651.124
  C     -177.942    -127.625    -652.279
  N     -176.759    -127.368    -652.896
  C     -178.933    -128.522    -652.925
  C     -180.050    -128.733    -652.222
  O     -184.505    -130.868    -654.688
  O     -186.108    -129.070    -653.810
  H     -181.698    -125.660    -650.317
  H     -185.357    -131.342    -654.657
  H     -178.736    -128.964    -653.890
  H     -180.829    -129.380    -652.602
  H     -181.193    -128.345    -649.150
  H     -182.670    -127.250    -651.621
  H     -184.752    -127.818    -650.438
  H     -183.776    -130.263    -649.535
  H     -176.109    -126.755    -652.434
  H     -183.918    -131.185    -651.780
  H     -176.509    -127.743    -653.793
  H     -185.233    -130.040    -651.573
  P     -185.169    -127.491    -647.901
  C     -186.198    -125.149    -647.638
  O     -185.095    -125.888    -648.119
  O     -184.790    -127.612    -646.340
  O     -186.468    -128.161    -648.207
  H     -185.567    -127.362    -645.790
  H     -185.965    -124.077    -647.744
  H     -186.383    -125.367    -646.586
  H     -187.086    -125.367    -648.250
  H     -183.718    -126.525    -655.864
  H     -183.767    -126.720    -654.128
  H     -185.243    -126.811    -655.059

 3  4  5  6  7  8  9  10  11  12  13  21  23  27  28  29  30  32 0
 6-311+G(2d,p)
 ****
 34  35 0
 6-311+G(2d,p)
 ****
 1  2  14  15  16  17  18  19  20  22  24  25  26 0
 3-21G
 ****
 31  33  36  37  38  39  40  41  42  43  44  45  46 0
 3-21G
 ****


