%nproc=1
%NoSave
%Mem=1900MB
#P OB98/GEN NMR

erre ene a

0 1
  C      246.670     213.537    -155.392
  O      247.009     212.348    -156.073
  H      246.277     214.259    -156.115
  H      247.558     213.965    -154.918
  H      245.903     213.339    -154.639
  P      247.613     211.153    -155.189
  C      250.094     211.908    -155.290
  O      248.935     211.742    -154.485
  C      251.259     212.424    -154.447
  O      252.440     212.532    -155.290
  C      251.012     213.806    -153.822
  O      251.594     213.832    -152.514
  C      251.793     214.736    -154.728
  O      252.142     215.955    -154.079
  C      252.982     213.848    -155.089
  N      256.281     217.271    -156.757
  C      255.819     217.021    -155.476
  N      256.302     217.799    -154.487
  N      254.949     216.081    -155.193
  C      254.566     215.361    -156.275
  C      254.945     215.515    -157.589
  C      255.890     216.572    -157.892
  O      256.318     216.854    -159.006
  N      254.306     214.605    -158.397
  C      253.548     213.900    -157.572
  N      253.679     214.320    -156.275
  O      248.199     210.140    -156.282
  O      246.651     210.488    -154.264
  H      252.785     216.427    -154.651
  H      248.161     209.217    -155.960
  H      256.940     218.012    -156.919
  H      252.891     213.089    -157.862
  H      253.727     213.801    -154.281
  H      251.202     214.979    -155.621
  H      256.999     218.521    -154.625
  H      249.955     214.070    -153.761
  H      255.985     217.628    -153.540
  H      251.490     211.679    -153.674
  H      249.873     212.625    -156.090
  H      250.360     210.943    -155.740
  P      250.622     213.579    -151.262
  C      251.400     215.577    -149.798
  O      250.339     214.984    -150.535
  O      251.565     212.802    -150.224
  O      249.407     212.773    -151.595
  H      251.298     211.868    -150.171
  H      251.067     216.501    -149.374
  H      252.228     215.762    -150.450
  H      251.704     214.914    -149.015

 6  7  8  9  10  11  12  13  14  15  26  29  33  34 0
 6-311+G(2d,p)
 ****
 36  38  39  40  41 0
 6-311+G(2d,p)
 ****
 1  2  3  4  5  16  17  18  19  20  21  22  23  24  25 0
 3-21G
 ****
 27  28  30  31  32  35  37  42  43  44  45  46  47 0
 3-21G
 ****
 48  49 0
 3-21G
 ****


