%nproc=1
%NoSave
%Mem=1900MB
#P OB98/GEN NMR

erre ene a

0 1
  C       39.773     -55.314     -98.267
  O       40.821     -54.722     -97.511
  P       41.347     -55.520     -96.219
  C       43.840     -55.224     -96.883
  O       42.770     -56.130     -96.639
  C       44.459     -55.482     -98.253
  O       43.476     -55.285     -99.288
  C       45.617     -54.562     -98.607
  O       46.840     -54.992     -98.032
  C       45.658     -54.718    -100.118
  O       46.323     -55.947    -100.464
  C       44.169     -54.805    -100.471
  N       41.315     -52.430    -103.984
  C       41.764     -53.700    -103.899
  N       42.529     -54.254    -102.936
  C       42.863     -53.340    -102.009
  C       42.512     -52.000    -101.986
  C       41.688     -51.546    -103.028
  N       41.208     -50.258    -103.098
  N       43.045     -51.379    -100.878
  C       43.698     -52.326    -100.238
  N       43.609     -53.531    -100.877
  O       40.393     -56.805     -96.176
  O       41.312     -54.750     -94.944
  H       45.960     -56.639     -99.881
  H       40.360     -57.166     -95.269
  H       41.460     -54.362    -104.705
  H       44.237     -52.187     -99.311
  H       43.973     -55.523    -101.274
  H       46.202     -53.909    -100.615
  H       45.390     -53.519     -98.352
  H       44.778     -56.532     -98.286
  H       44.606     -55.361     -96.113
  H       40.481     -50.062    -103.767
  H       41.321     -49.664    -102.285
  H       43.461     -54.199     -96.821
  P       47.678     -53.896     -97.209
  C       47.762     -55.153     -94.937
  O       47.227     -54.077     -95.683
  O       47.003     -52.516     -97.653
  O       49.145     -53.925     -97.475
  H       47.638     -51.780     -97.558
  H       47.607     -54.953     -93.873
  H       48.835     -55.264     -95.118
  H       47.246     -56.080     -95.200
  H       39.525     -54.679     -99.092
  H       38.912     -55.442     -97.644
  H       40.092     -56.267     -98.634

 3  4  5  6  7  8  9  10  11  12  22  25  29  30  31  32 0
 6-311+G(2d,p)
 ****
 33  36  37 0
 6-311+G(2d,p)
 ****
 1  2  13  14  15  16  17  18  19  20  21  23  24  26 0
 3-21G
 ****
 27  28  34  35  38  39  40  41  42  43  44  45  46  47  48 0
 3-21G
 ****


