%nproc=1
%NoSave
%Mem=1900MB
#P OB98/GEN NMR

erre ene a

0 1
  C      248.370     238.753      54.207
  O      249.651     238.320      53.799
  H      247.796     239.036      53.321
  H      248.462     239.625      54.858
  H      247.840     237.951      54.730
  P      250.584     237.636      54.908
  C      250.646     235.381      53.616
  O      250.314     236.055      54.820
  C      250.265     233.905      53.720
  O      248.818     233.792      53.602
  C      250.885     233.021      52.630
  O      251.193     231.746      53.203
  C      249.751     232.857      51.635
  O      249.865     231.702      50.816
  C      248.544     232.815      52.577
  N      247.287     233.109      51.894
  C      246.745     232.108      51.093
  O      247.200     230.972      50.987
  N      245.622     232.460      50.388
  C      245.021     233.683      50.388
  O      244.028     233.942      49.718
  C      245.644     234.702      51.245
  C      246.732     234.373      51.944
  O      249.880     238.057      56.280
  O      252.025     238.023      54.861
  H      250.240     238.903      56.603
  H      250.742     231.734      50.383
  H      245.217     231.746      49.802
  H      245.201     235.687      51.262
  H      247.230     235.107      52.571
  H      248.477     231.837      53.067
  H      249.703     233.734      50.978
  H      251.781     233.444      52.167
  H      250.534     233.541      54.719
  H      251.724     235.459      53.442
  H      250.119     235.854      52.780
  P      252.675     231.538      53.785
  C      251.909     231.268      56.277
  O      252.611     232.034      55.309
  O      253.471     232.695      53.022
  O      253.197     230.158      53.570
  H      252.938     233.495      52.884
  H      251.975     231.751      57.230
  H      252.342     230.292      56.341
  H      250.882     231.185      55.989

 6  7  8  9  10  11  12  13  14  15  16  27  31  32  33  34  35 0
 6-311+G(2d,p)
 ****
 36  37 0
 6-311+G(2d,p)
 ****
 1  2  3  4  5  17  18  19  20  21  22  23  24  25 0
 3-21G
 ****
 26  28  29  30  38  39  40  41  42  43  44  45 0
 3-21G
 ****


