%nproc=1
%NoSave
%Mem=1900MB
#P OB98/GEN NMR

erre ene a

0 1
  C       64.579     110.058      55.836
  O       65.760     110.781      55.548
  H       64.407     110.086      56.916
  H       64.692     109.015      55.525
  H       63.722     110.510      55.331
  P       66.095     111.020      53.993
  C       64.399     112.858      53.183
  O       65.684     112.545      53.697
  C       64.267     114.365      52.956
  O       64.890     115.059      54.065
  C       64.925     114.858      51.666
  O       64.120     115.904      51.112
  C       66.255     115.425      52.140
  O       66.776     116.391      51.231
  C       65.882     115.959      53.531
  N       67.043     116.062      54.416
  C       67.189     117.255      55.129
  O       66.376     118.170      54.984
  N       68.275     117.405      55.956
  C       69.177     116.470      56.016
  N       70.239     116.690      56.840
  C       69.088     115.215      55.241
  C       68.006     115.075      54.478
  O       64.945     110.167      53.279
  O       67.487     110.643      53.601
  H       66.182     117.176      51.244
  H       64.075     110.257      53.700
  H       69.872     114.473      55.311
  H       67.858     114.181      53.882
  H       65.421     116.953      53.452
  H       66.994     114.620      52.230
  H       65.068     114.072      50.925
  H       63.201     114.625      52.982
  H       70.269     117.573      57.339
  H       63.620     112.523      53.877
  H       71.023     116.059      56.921
  H       64.272     112.318      52.240
  P       63.156     115.576      49.874
  C       61.016     114.506      50.835
  O       61.628     115.693      50.354
  O       63.488     114.339      49.102
  O       63.321     116.879      48.941
  H       63.328     116.585      48.008
  H       60.007     114.716      51.121
  H       61.559     114.143      51.683
  H       61.021     113.764      50.064

 6  7  8  9  10  11  12  13  14  15  16  26  30  31  32  33  35 0
 6-311+G(2d,p)
 ****
 37  38 0
 6-311+G(2d,p)
 ****
 1  2  3  4  5  17  18  19  20  21  22  23  24  25 0
 3-21G
 ****
 27  28  29  34  36  39  40  41  42  43  44  45  46 0
 3-21G
 ****


