%nproc=1
%NoSave
%Mem=1900MB
#P OB98/GEN NMR

erre ene a

0 1
  C     -150.751     -70.360     -82.114
  O     -149.385     -70.263     -82.494
  P     -148.652     -68.847     -82.284
  C     -148.449     -66.676     -83.696
  O     -148.992     -67.988     -83.596
  C     -148.536     -66.167     -85.132
  O     -147.816     -67.048     -86.017
  C     -149.950     -66.091     -85.690
  O     -150.625     -64.911     -85.287
  C     -149.668     -66.057     -87.183
  O     -149.274     -64.728     -87.576
  C     -148.481     -67.019     -87.308
  N     -148.525     -70.476     -91.076
  C     -148.123     -69.187     -91.042
  N     -148.154     -68.328     -90.002
  C     -148.700     -68.911     -88.920
  C     -149.188     -70.203     -88.818
  C     -149.075     -71.012     -89.960
  N     -149.458     -72.335     -89.985
  N     -149.674     -70.439     -87.551
  C     -149.475     -69.315     -86.895
  N     -148.881     -68.363     -87.677
  O     -147.105     -69.212     -82.472
  O     -148.920     -68.185     -80.976
  H     -150.083     -64.181     -87.579
  H     -146.548     -68.547     -82.022
  H     -147.716     -68.798     -91.971
  H     -149.734     -69.147     -85.859
  H     -147.744     -66.679     -88.043
  H     -150.541     -66.323     -87.788
  H     -150.524     -66.994     -85.447
  H     -148.055     -65.181     -85.171
  H     -147.399     -66.698     -83.389
  H     -149.176     -72.894     -90.776
  H     -149.677     -72.783     -89.102
  H     -148.998     -66.009     -83.020
  P     -152.192     -65.047     -84.963
  C     -154.259     -65.746     -86.376
  O     -152.882     -65.421     -86.359
  O     -152.642     -63.534     -84.699
  O     -152.503     -65.942     -83.810
  H     -153.428     -63.507     -84.123
  H     -154.626     -65.664     -87.402
  H     -154.835     -65.060     -85.745
  H     -154.402     -66.773     -86.029
  H     -151.106     -71.351     -82.308
  H     -151.329     -69.657     -82.677
  H     -150.847     -70.145     -81.070

 3  4  5  6  7  8  9  10  11  12  22  25  29  30  31  32 0
 6-311+G(2d,p)
 ****
 33  36  37 0
 6-311+G(2d,p)
 ****
 1  2  13  14  15  16  17  18  19  20  21  23  24  26 0
 3-21G
 ****
 27  28  34  35  38  39  40  41  42  43  44  45  46  47  48 0
 3-21G
 ****


