%nproc=1
%NoSave
%Mem=1900MB
#P OB98/GEN NMR

erre ene a

0 1
  C      339.413     649.954    -621.046
  O      339.572     648.646    -621.595
  P      340.813     648.178    -622.483
  C      341.647     646.294    -620.856
  O      341.904     647.534    -621.508
  C      342.771     645.875    -619.890
  O      343.006     646.939    -618.934
  C      342.351     644.646    -619.080
  O      342.498     643.350    -619.627
  C      343.019     644.829    -617.727
  O      344.281     644.166    -617.643
  C      343.221     646.351    -617.637
  N      342.727     648.264    -612.913
  C      343.816     647.645    -613.500
  N      344.904     647.471    -612.716
  N      343.838     647.228    -614.734
  C      342.662     647.386    -615.382
  C      341.500     647.962    -614.904
  C      341.510     648.484    -613.551
  O      340.579     649.046    -612.989
  N      340.500     647.930    -615.838
  C      341.034     647.307    -616.869
  N      342.353     646.967    -616.641
  O      341.302     649.166    -623.488
  O      340.226     646.911    -623.294
  H      344.120     643.206    -617.666
  H      340.676     646.905    -624.159
  H      342.781     648.594    -611.969
  H      340.526     647.094    -617.802
  H      344.243     646.598    -617.349
  H      342.395     644.419    -616.926
  H      344.914     647.667    -611.728
  H      341.270     644.749    -618.884
  H      345.619     646.838    -613.073
  H      343.711     645.740    -620.421
  H      341.523     645.544    -621.647
  H      340.699     646.343    -620.325
  P      341.343     642.469    -620.295
  C      342.254     642.750    -622.675
  O      341.155     642.962    -621.809
  O      340.002     642.988    -619.596
  O      341.498     640.992    -620.128
  H      339.274     642.342    -619.732
  H      342.141     643.383    -623.557
  H      342.271     641.701    -622.988
  H      343.206     642.998    -622.175
  H      338.497     650.001    -620.495
  H      339.389     650.673    -621.838
  H      340.233     650.169    -620.393

 3  4  5  6  7  8  9  10  11  12  23  26  30  31 0
 6-311+G(2d,p)
 ****
 33  35  36  37  38 0
 6-311+G(2d,p)
 ****
 1  2  13  14  15  16  17  18  19  20  21  22  24  25 0
 3-21G
 ****
 27  28  29  32  34  39  40  41  42  43  44  45  46  47  48  49 0
 3-21G
 ****


