%nproc=1
%NoSave
%Mem=1900MB
#P OB98/GEN NMR

erre ene a

0 1
  C      813.569    -140.594    -248.465
  O      814.826    -141.165    -248.742
  H      813.468    -140.472    -247.382
  H      812.757    -141.237    -248.820
  H      813.490    -139.608    -248.938
  P      815.114    -141.682    -250.239
  C      813.845    -143.184    -251.920
  O      813.914    -142.694    -250.578
  C      812.854    -144.345    -252.037
  O      813.283    -145.452    -251.212
  C      811.457    -143.998    -251.539
  O      810.759    -143.087    -252.370
  C      810.848    -145.371    -251.279
  O      810.270    -145.975    -252.435
  C      812.097    -146.189    -250.838
  N      812.072    -146.489    -249.410
  C      811.785    -147.808    -249.079
  O      811.529    -148.681    -249.911
  N      811.743    -148.088    -247.737
  C      811.914    -147.189    -246.729
  O      811.822    -147.500    -245.547
  C      812.188    -145.808    -247.141
  C      812.260    -145.521    -248.443
  O      816.478    -142.254    -250.485
  O      814.778    -140.408    -251.147
  H      809.573    -145.366    -252.756
  H      815.161    -140.506    -252.052
  H      811.540    -149.044    -247.481
  H      812.331    -145.059    -246.360
  H      812.462    -144.503    -248.776
  H      812.137    -147.133    -251.385
  H      810.068    -145.327    -250.515
  H      811.544    -143.507    -250.564
  H      812.843    -144.685    -253.076
  H      814.851    -143.540    -252.196
  H      813.567    -142.363    -252.596
  P      809.744    -141.992    -251.806
  C      807.820    -142.012    -250.045
  O      808.576    -142.754    -251.002
  O      809.363    -140.885    -252.730
  O      810.607    -141.339    -250.607
  H      810.373    -140.392    -250.556
  H      807.087    -142.650    -249.597
  H      807.331    -141.195    -250.533
  H      808.475    -141.635    -249.288

 6  7  8  9  10  11  12  13  14  15  16  26  31  32  33  34  35 0
 6-311+G(2d,p)
 ****
 36  37 0
 6-311+G(2d,p)
 ****
 1  2  3  4  5  17  18  19  20  21  22  23  24  25 0
 3-21G
 ****
 27  28  29  30  38  39  40  41  42  43  44  45 0
 3-21G
 ****


