%nproc=1
%NoSave
%Mem=1900MB
#P OB98/GEN NMR

erre ene a

0 1
  C      185.099      54.174     -43.771
  O      185.573      54.490     -42.477
  P      184.743      55.439     -41.486
  C      182.666      55.058     -40.017
  O      183.372      54.655     -41.180
  C      181.155      55.076     -40.261
  O      180.786      56.319     -40.920
  C      180.631      53.920     -41.126
  O      179.325      53.610     -40.633
  C      180.545      54.554     -42.500
  O      179.689      53.837     -43.384
  C      180.089      55.975     -42.137
  N      180.349      56.922     -43.213
  C      179.549      56.814     -44.353
  O      178.729      55.896     -44.454
  N      179.732      57.705     -45.381
  C      180.704      58.566     -45.313
  N      180.836      59.427     -46.357
  C      181.649      58.632     -44.182
  C      181.407      57.803     -43.170
  O      184.573      56.846     -41.948
  O      185.530      55.314     -40.098
  H      179.695      54.288     -44.253
  H      186.355      55.862     -40.118
  H      182.475      59.328     -44.196
  H      182.044      57.777     -42.295
  H      179.014      55.986     -41.914
  H      181.544      54.582     -42.957
  H      181.273      53.036     -41.109
  H      180.657      55.068     -39.284
  H      180.155      59.356     -47.105
  H      182.994      56.067     -39.753
  H      181.499      60.187     -46.367
  H      182.916      54.395     -39.179
  P      178.611      52.215     -40.977
  C      179.034      49.764     -40.364
  O      179.606      51.054     -40.499
  O      178.119      52.081     -42.380
  O      177.404      52.118     -39.923
  H      176.772      51.430     -40.219
  H      179.837      49.023     -40.316
  H      178.389      49.530     -41.216
  H      178.450      49.716     -39.442
  H      185.801      53.532     -44.261
  H      184.983      55.074     -44.338
  H      184.155      53.677     -43.693

 3  4  5  6  7  8  9  10  11  12  13  23  27  28  29  30  32 0
 6-311+G(2d,p)
 ****
 34  35 0
 6-311+G(2d,p)
 ****
 1  2  14  15  16  17  18  19  20  21  22  24  25  26 0
 3-21G
 ****
 31  33  36  37  38  39  40  41  42  43  44  45  46 0
 3-21G
 ****


