%nproc=1
%NoSave
%Mem=1900MB
#P OB98/GEN NMR

erre ene a

0 1
  C     -302.690      41.808    -152.395
  O     -302.403      40.454    -152.743
  P     -301.834      40.138    -154.207
  C     -299.950      38.402    -153.932
  O     -301.325      38.616    -154.231
  C     -299.695      36.940    -153.563
  O     -300.222      36.618    -152.260
  C     -300.359      35.955    -154.514
  O     -299.657      35.893    -155.748
  C     -300.335      34.680    -153.691
  O     -299.056      34.027    -153.782
  C     -300.554      35.213    -152.258
  N     -301.903      34.988    -151.761
  C     -302.028      34.057    -150.723
  O     -301.037      33.451    -150.311
  N     -303.275      33.822    -150.195
  C     -304.303      34.460    -150.664
  N     -305.511      34.189    -150.098
  C     -304.216      35.439    -151.762
  C     -302.998      35.647    -152.265
  O     -300.872      41.139    -154.758
  O     -303.170      40.069    -155.097
  H     -298.891      33.895    -154.735
  H     -302.955      40.355    -156.007
  H     -305.105      35.948    -152.117
  H     -302.848      36.347    -153.076
  H     -299.857      34.730    -151.560
  H     -301.087      33.961    -154.033
  H     -301.399      36.260    -154.697
  H     -298.609      36.774    -153.551
  H     -305.544      33.504    -149.355
  H     -299.653      39.051    -153.104
  H     -306.360      34.668    -150.361
  H     -299.348      38.702    -154.799
  P     -300.430      36.374    -157.069
  C     -298.218      35.898    -158.337
  O     -299.630      35.807    -158.337
  O     -300.126      37.949    -157.111
  O     -301.902      36.110    -157.066
  H     -300.892      38.419    -157.484
  H     -297.825      35.206    -159.088
  H     -297.803      35.628    -157.361
  H     -297.914      36.912    -158.596
  H     -303.059      41.848    -151.391
  H     -303.429      42.199    -153.063
  H     -301.797      42.393    -152.470

 3  4  5  6  7  8  9  10  11  12  13  23  27  28  29  30  32 0
 6-311+G(2d,p)
 ****
 34  35 0
 6-311+G(2d,p)
 ****
 1  2  14  15  16  17  18  19  20  21  22  24  25  26 0
 3-21G
 ****
 31  33  36  37  38  39  40  41  42  43  44  45  46 0
 3-21G
 ****


