%nproc=1
%NoSave
%Mem=1900MB
#P OB98/GEN NMR

erre ene a

0 1
  C      150.949      41.790    -101.660
  O      152.252      42.010    -102.172
  P      152.373      42.681    -103.626
  C      151.407      44.823    -104.733
  O      151.336      43.905    -103.648
  C      150.014      45.160    -105.268
  O      149.453      43.981    -105.893
  C      149.033      45.642    -104.198
  O      148.212      46.654    -104.782
  C      148.183      44.417    -103.921
  O      146.904      44.769    -103.398
  C      148.156      43.752    -105.306
  N      147.848      42.327    -105.229
  C      146.516      41.982    -104.981
  O      145.682      42.861    -104.762
  N      146.174      40.655    -104.936
  C      147.100      39.750    -105.021
  N      146.711      38.448    -104.974
  C      148.533      40.075    -105.159
  C      148.830      41.368    -105.277
  O      151.686      41.597    -104.579
  O      153.770      43.002    -104.048
  H      146.402      43.940    -103.238
  H      152.100      41.598    -105.463
  H      149.268      39.284    -105.190
  H      149.852      41.698    -105.405
  H      147.410      44.235    -105.951
  H      148.688      43.769    -103.195
  H      149.534      46.038    -103.310
  H      150.125      45.921    -106.051
  H      145.724      38.251    -104.865
  H      151.984      44.371    -105.544
  H      147.362      37.677    -105.033
  H      151.926      45.729    -104.408
  P      147.620      47.783    -103.809
  C      148.777      49.549    -102.349
  O      148.866      48.258    -102.918
  O      146.794      46.897    -102.756
  O      146.764      48.852    -104.402
  H      146.324      47.479    -102.134
  H      149.618      49.688    -101.665
  H      147.845      49.658    -101.790
  H      148.836      50.308    -103.136
  H      151.018      41.341    -100.691
  H      150.413      41.139    -102.318
  H      150.433      42.724    -101.584

 3  4  5  6  7  8  9  10  11  12  13  21  23  27  28  29  30  32 0
 6-311+G(2d,p)
 ****
 34  35 0
 6-311+G(2d,p)
 ****
 1  2  14  15  16  17  18  19  20  22  24  25  26 0
 3-21G
 ****
 31  33  36  37  38  39  40  41  42  43  44  45  46 0
 3-21G
 ****


