%nproc=1
%NoSave
%Mem=1900MB
#P OB98/GEN NMR

erre ene a

0 1
  C      -53.158     -83.488    -321.029
  O      -53.739     -82.218    -321.269
  P      -54.454     -81.477    -320.039
  C      -57.052     -81.280    -320.157
  O      -55.928     -82.115    -319.920
  C      -57.290     -81.132    -321.665
  O      -57.551     -82.420    -322.270
  C      -58.492     -80.268    -322.022
  O      -58.195     -78.882    -321.970
  C      -58.747     -80.697    -323.460
  O      -57.823     -80.032    -324.346
  C      -58.435     -82.207    -323.403
  N      -62.310     -84.361    -325.842
  C      -61.171     -83.766    -326.354
  N      -61.082     -83.676    -327.692
  N      -60.201     -83.296    -325.602
  C      -60.437     -83.438    -324.270
  C      -61.524     -84.014    -323.651
  C      -62.595     -84.517    -324.494
  O      -63.655     -85.003    -324.105
  N      -61.400     -83.986    -322.293
  C      -60.235     -83.400    -322.074
  N      -59.633     -83.013    -323.247
  O      -54.743     -80.007    -320.613
  O      -53.657     -81.442    -318.779
  H      -57.875     -79.080    -324.135
  H      -54.930     -79.391    -319.877
  H      -63.031     -84.696    -326.468
  H      -59.796     -83.225    -321.099
  H      -57.898     -82.546    -324.295
  H      -59.752     -80.454    -323.806
  H      -61.813     -83.961    -328.326
  H      -59.367     -80.519    -321.406
  H      -60.284     -83.192    -328.093
  H      -56.368     -80.730    -322.114
  H      -56.871     -80.299    -319.724
  H      -57.932     -81.720    -319.680
  P      -59.443     -77.871    -321.896
  C      -60.218     -76.678    -324.073
  O      -60.089     -77.895    -323.362
  O      -58.742     -76.433    -321.807
  O      -60.372     -78.130    -320.753
  H      -59.326     -75.797    -321.353
  H      -60.425     -76.903    -325.125
  H      -59.295     -76.093    -324.017
  H      -61.054     -76.090    -323.666
  H      -52.722     -83.857    -321.934
  H      -53.913     -84.168    -320.694
  H      -52.401     -83.398    -320.279

 3  4  5  6  7  8  9  10  11  12  23  26  30  31 0
 6-311+G(2d,p)
 ****
 33  35  36  37  38 0
 6-311+G(2d,p)
 ****
 1  2  13  14  15  16  17  18  19  20  21  22  24  25 0
 3-21G
 ****
 27  28  29  32  34  39  40  41  42  43  44  45  46  47  48  49 0
 3-21G
 ****


