%nproc=1
%NoSave
%Mem=1900MB
#P OB98/GEN NMR

erre ene a

0 1
  C      -86.646     328.496     358.155
  O      -87.088     329.468     357.224
  H      -85.560     328.587     358.259
  H      -86.879     327.495     357.790
  H      -87.106     328.657     359.133
  P      -88.662     329.654     356.989
  C      -89.686     331.527     358.442
  O      -89.003     331.206     357.234
  C      -89.919     333.041     358.546
  O      -88.807     333.635     359.267
  C      -90.021     333.741     357.184
  O      -91.000     334.785     357.264
  C      -88.640     334.347     356.995
  O      -88.662     335.489     356.139
  C      -88.239     334.665     358.432
  N      -84.317     337.622     359.656
  C      -85.675     337.881     359.694
  N      -86.046     339.119     360.094
  N      -86.588     337.010     359.353
  C      -86.077     335.801     359.001
  C      -84.755     335.418     358.928
  C      -83.749     336.406     359.276
  O      -82.535     336.239     359.252
  N      -84.629     334.118     358.501
  C      -85.877     333.717     358.316
  N      -86.786     334.703     358.590
  O      -89.533     328.695     357.744
  O      -88.846     329.489     355.407
  H      -88.857     335.162     355.231
  H      -89.236     328.625     355.188
  H      -83.657     338.334     359.913
  H      -86.172     332.729     357.979
  H      -88.620     335.637     358.768
  H      -87.965     333.600     356.553
  H      -85.399     339.835     360.383
  H      -90.281     333.052     356.381
  H      -87.037     339.328     360.151
  H      -90.822     333.214     359.145
  H      -89.064     331.191     359.284
  H      -90.642     330.998     358.470
  P      -92.557     334.397     357.234
  C      -93.291     335.128     359.587
  O      -93.362     335.406     358.193
  O      -92.863     332.949     357.445
  O      -93.013     334.871     355.764
  H      -93.694     334.253     355.432
  H      -93.859     335.858     360.126
  H      -92.270     335.164     359.906
  H      -93.690     334.154     359.777

 6  7  8  9  10  11  12  13  14  15  26  29  33  34 0
 6-311+G(2d,p)
 ****
 36  38  39  40  41 0
 6-311+G(2d,p)
 ****
 1  2  3  4  5  16  17  18  19  20  21  22  23  24  25 0
 3-21G
 ****
 27  28  30  31  32  35  37  42  43  44  45  46  47 0
 3-21G
 ****
 48  49 0
 3-21G
 ****


