%nproc=1
%NoSave
%Mem=1900MB
#P OB98/GEN NMR

erre ene a

0 1
  C      337.583     564.315     411.363
  O      337.723     565.151     410.228
  H      338.512     564.355     411.939
  H      337.412     563.281     411.056
  H      336.760     564.662     411.990
  P      336.521     565.209     409.168
  C      335.772     567.310     410.478
  O      335.376     566.107     409.830
  C      334.949     568.494     409.970
  O      333.538     568.194     410.058
  C      335.152     569.783     410.753
  O      336.382     570.384     410.428
  C      333.911     570.566     410.335
  O      334.087     571.137     409.028
  C      332.843     569.453     410.306
  N      332.043     569.361     411.529
  C      331.255     570.479     411.822
  O      331.267     571.464     411.083
  N      330.491     570.450     412.967
  C      330.481     569.397     413.717
  N      329.697     569.424     414.840
  C      331.273     568.180     413.412
  C      332.034     568.240     412.328
  O      336.051     563.897     408.634
  O      337.091     566.150     407.995
  H      333.189     571.432     408.749
  H      337.493     565.610     407.294
  H      331.223     567.310     414.067
  H      332.642     567.395     412.033
  H      332.157     569.599     409.455
  H      333.684     571.388     411.026
  H      335.085     569.587     411.832
  H      335.182     568.641     408.903
  H      329.154     570.273     414.987
  H      336.840     567.467     410.245
  H      329.483     568.617     415.397
  H      335.669     567.218     411.562
  P      336.994     571.591     411.288
  C      338.410     570.049     412.784
  O      337.336     570.963     412.742
  O      336.149     572.828     411.333
  O      338.451     571.811     410.661
  H      338.376     572.312     409.804
  H      338.544     569.702     413.787
  H      339.304     570.534     412.452
  H      338.196     569.218     412.144

 6  7  8  9  10  11  12  13  14  15  16  26  30  31  32  33  35 0
 6-311+G(2d,p)
 ****
 37  38 0
 6-311+G(2d,p)
 ****
 1  2  3  4  5  17  18  19  20  21  22  23  24  25 0
 3-21G
 ****
 27  28  29  34  36  39  40  41  42  43  44  45  46 0
 3-21G
 ****


