%nproc=1
%NoSave
%Mem=1900MB
#P OB98/GEN NMR

erre ene a

0 1
  C      143.874    -757.383     172.795
  O      144.390    -758.703     172.801
  H      142.791    -757.429     172.918
  H      144.101    -756.903     171.840
  H      144.302    -756.802     173.615
  P      145.984    -758.856     172.721
  C      147.955    -758.536     174.375
  O      146.554    -758.445     174.169
  C      148.262    -758.995     175.803
  O      147.757    -757.990     176.735
  C      147.624    -760.342     176.184
  O      148.526    -761.023     177.067
  C      146.404    -759.926     176.994
  O      145.933    -760.959     177.849
  C      146.963    -758.698     177.717
  N      142.927    -758.710     180.726
  C      143.822    -759.721     180.420
  N      143.614    -760.920     181.003
  N      144.839    -759.567     179.612
  C      144.947    -758.309     179.123
  C      144.127    -757.221     179.344
  C      142.993    -757.418     180.223
  O      142.151    -756.567     180.517
  N      144.558    -756.124     178.641
  C      145.641    -756.542     178.004
  N      145.915    -757.858     178.260
  O      146.411    -757.629     171.783
  O      146.476    -760.165     172.192
  H      145.096    -760.656     178.261
  H      146.471    -757.924     170.853
  H      142.155    -758.890     181.346
  H      146.248    -755.938     177.337
  H      147.617    -758.977     178.554
  H      145.584    -759.641     176.319
  H      142.884    -761.098     181.674
  H      147.381    -760.984     175.334
  H      144.284    -761.665     180.826
  H      149.346    -759.022     175.935
  H      148.407    -757.551     174.211
  H      148.379    -759.248     173.660
  P      149.146    -762.422     176.578
  C      150.974    -763.100     174.857
  O      150.492    -762.114     175.767
  O      148.125    -762.879     175.427
  O      149.255    -763.454     177.658
  H      148.117    -763.849     175.358
  H      151.874    -762.750     174.396
  H      150.235    -763.282     174.105
  H      151.174    -764.007     175.387

 6  7  8  9  10  11  12  13  14  15  26  29  33  34 0
 6-311+G(2d,p)
 ****
 36  38  39  40  41 0
 6-311+G(2d,p)
 ****
 1  2  3  4  5  16  17  18  19  20  21  22  23  24  25 0
 3-21G
 ****
 27  28  30  31  32  35  37  42  43  44  45  46  47 0
 3-21G
 ****
 48  49 0
 3-21G
 ****


