%nproc=1
%NoSave
%Mem=1900MB
#P OB98/GEN NMR

erre ene a

0 1
  C     -211.111     486.397    -568.638
  O     -211.865     485.207    -568.513
  H     -210.356     486.418    -567.850
  H     -211.759     487.267    -568.533
  H     -210.607     486.423    -569.610
  P     -213.021     484.970    -569.601
  C     -211.555     484.081    -571.557
  O     -212.515     483.780    -570.546
  C     -210.722     482.838    -571.856
  O     -209.750     482.633    -570.805
  C     -211.531     481.548    -571.917
  O     -212.226     481.403    -573.147
  C     -210.441     480.506    -571.702
  O     -209.755     480.208    -572.926
  C     -209.498     481.212    -570.724
  N     -207.070     480.200    -566.346
  C     -206.648     480.731    -567.510
  N     -207.360     480.982    -568.629
  C     -208.651     480.647    -568.450
  C     -209.233     480.102    -567.319
  C     -208.380     479.873    -566.223
  N     -208.816     479.312    -565.041
  N     -210.574     479.863    -567.530
  C     -210.805     480.264    -568.767
  N     -209.675     480.754    -569.360
  O     -212.914     486.271    -570.528
  O     -214.396     484.796    -569.038
  H     -209.256     481.019    -573.152
  H     -213.610     486.911    -570.273
  H     -205.584     480.981    -567.551
  H     -211.760     480.215    -569.277
  H     -208.441     481.057    -570.982
  H     -210.863     479.581    -571.314
  H     -212.230     481.508    -571.073
  H     -210.174     483.000    -572.798
  H     -210.897     484.882    -571.209
  H     -212.083     484.418    -572.456
  H     -208.137     479.115    -564.325
  H     -209.762     478.965    -564.988
  P     -213.332     480.249    -573.235
  C     -215.223     481.977    -573.760
  O     -214.521     480.802    -574.157
  O     -213.984     480.214    -571.773
  O     -212.807     478.912    -573.647
  H     -214.213     479.298    -571.533
  H     -215.978     482.203    -574.484
  H     -214.538     482.796    -573.692
  H     -215.681     481.814    -572.807

 6  7  8  9  10  11  12  13  14  15  25  28  32  33  34  35 0
 6-311+G(2d,p)
 ****
 36  37  40 0
 6-311+G(2d,p)
 ****
 1  2  3  4  5  16  17  18  19  20  21  22  23  24 0
 3-21G
 ****
 26  27  29  30  31  38  39 41  42  43  44  45  46  47  48 0
 3-21G
 ****


