%nproc=1
%NoSave
%Mem=1900MB
#P OB98/GEN NMR

erre ene a

0 1
  C      105.248     345.370    -364.351
  O      104.015     345.911    -364.780
  H      105.514     344.539    -365.013
  H      105.158     344.989    -363.329
  H      106.041     346.123    -364.399
  P      103.439     347.214    -364.041
  C      101.812     345.848    -362.589
  O      102.923     346.735    -362.596
  C      101.344     345.584    -361.158
  O      102.282     344.677    -360.524
  C      101.249     346.847    -360.294
  O      100.113     346.732    -359.435
  C      102.523     346.802    -359.464
  O      102.385     347.498    -358.224
  C      102.735     345.294    -359.303
  N      106.290     344.977    -355.720
  C      104.940     345.253    -355.615
  N      104.463     345.510    -354.371
  N      104.127     345.281    -356.640
  C      104.729     344.996    -357.813
  C      106.056     344.709    -358.057
  C      106.954     344.692    -356.913
  O      108.159     344.467    -356.945
  N      106.288     344.500    -359.390
  C      105.112     344.666    -359.961
  N      104.132     344.974    -359.052
  O      102.441     348.008    -364.823
  O      104.746     348.073    -363.700
  H      102.987     347.066    -357.580
  H      104.862     348.794    -364.346
  H      106.875     344.978    -354.900
  H      104.910     344.577    -361.027
  H      102.158     344.883    -358.461
  H      103.345     347.258    -360.025
  H      105.031     345.485    -353.538
  H      101.179     347.765    -360.890
  H      103.477     345.690    -354.271
  H      100.379     345.064    -361.197
  H      102.123     344.908    -363.060
  H      100.995     346.282    -363.178
  P       98.852     347.689    -359.694
  C      100.054     349.562    -358.394
  O       99.341     349.214    -359.575
  O       97.619     347.353    -358.917
  O       98.600     347.520    -361.276
  H       97.647     347.642    -361.456
  H      100.324     350.597    -358.432
  H      100.939     348.965    -358.323
  H       99.435     349.386    -357.539

 6  7  8  9  10  11  12  13  14  15  26  29  33  34 0
 6-311+G(2d,p)
 ****
 36  38  39  40  41 0
 6-311+G(2d,p)
 ****
 1  2  3  4  5  16  17  18  19  20  21  22  23  24  25 0
 3-21G
 ****
 27  28  30  31  32  35  37  42  43  44  45  46  47 0
 3-21G
 ****
 48  49 0
 3-21G
 ****


