%nproc=1
%NoSave
%Mem=1900MB
#P OB98/GEN NMR

erre ene a

0 1
  C      236.457    -166.879     134.856
  O      236.082    -165.537     134.617
  H      237.513    -166.921     135.129
  H      235.864    -167.266     135.689
  H      236.274    -167.498     133.974
  P      236.601    -164.861     133.258
  C      236.571    -162.672     134.651
  O      236.312    -163.285     133.397
  C      236.082    -161.224     134.647
  O      236.559    -160.577     133.434
  C      234.554    -161.073     134.690
  O      234.230    -159.957     135.523
  C      234.198    -160.734     133.254
  O      232.978    -160.010     133.143
  C      235.425    -159.938     132.821
  N      232.761    -159.562     128.507
  C      232.449    -159.276     129.788
  N      233.240    -159.354     130.876
  C      234.488    -159.712     130.533
  C      234.959    -160.028     129.269
  C      234.024    -159.960     128.221
  N      234.315    -160.315     126.925
  N      236.288    -160.405     129.333
  C      236.603    -160.341     130.608
  N      235.548    -159.927     131.374
  O      235.506    -165.350     132.194
  O      237.986    -165.229     132.845
  H      233.018    -159.232     133.735
  H      235.771    -166.213     131.827
  H      231.424    -158.950     129.965
  H      237.561    -160.608     131.035
  H      235.391    -158.895     133.157
  H      234.103    -161.660     132.672
  H      234.031    -161.967     135.048
  H      236.544    -160.700     135.493
  H      237.651    -162.681     134.836
  H      233.554    -160.336     126.263
  H      235.216    -160.717     126.719
  H      236.075    -163.241     135.443
  P      233.338    -160.242     136.827
  C      231.579    -158.454     137.530
  O      232.950    -158.839     137.494
  O      234.387    -160.866     137.859
  O      232.188    -161.166     136.582
  H      233.948    -161.520     138.435
  H      231.489    -157.499     138.004
  H      231.019    -159.180     138.081
  H      231.199    -158.394     136.532

 6  7  8  9  10  11  12  13  14  15  25  28  32  33  34  35 0
 6-311+G(2d,p)
 ****
 36  39  40 0
 6-311+G(2d,p)
 ****
 1  2  3  4  5  16  17  18  19  20  21  22  23  24 0
 3-21G
 ****
 26  27  29  30  31  37  38  41  42  43  44  45  46  47 0
 3-21G
 ****
 48 0
 3-21G
 ****


