%nproc=1
%NoSave
%Mem=1900MB
#P OB98/GEN NMR

erre ene a

0 1
  C        4.622     545.446     467.789
  O        5.317     546.381     468.586
  H        3.547     545.662     467.807
  H        4.973     545.525     466.758
  H        4.800     544.431     468.156
  P        4.912     546.459     470.137
  C        7.464     546.565     470.598
  O        6.177     547.077     470.925
  C        8.526     547.271     471.431
  O        8.564     548.673     471.045
  C        8.299     547.200     472.956
  O        9.436     546.601     473.599
  C        8.226     548.659     473.393
  O        8.894     548.910     474.620
  C        8.866     549.414     472.230
  N       10.211     554.269     471.460
  C       10.828     553.108     471.131
  N       10.362     551.849     471.269
  C        9.118     551.840     471.780
  C        8.361     552.949     472.147
  C        8.969     554.209     471.988
  N        8.362     555.387     472.371
  N        7.137     552.555     472.653
  C        7.174     551.241     472.631
  N        8.363     550.759     472.132
  O        4.895     544.921     470.588
  O        3.611     547.124     470.421
  H        9.032     549.874     474.673
  H        4.085     544.729     471.085
  H       11.824     553.200     470.706
  H        6.397     550.574     473.012
  H        9.966     549.463     472.332
  H        7.163     548.938     473.503
  H        7.384     546.668     473.224
  H        9.511     546.841     471.174
  H        7.666     546.737     469.537
  H        8.919     556.227     472.324
  H        7.483     555.340     472.858
  H        7.475     545.482     470.775
  P        9.619     545.009     473.389
  C       12.199     545.308     473.627
  O       11.024     544.605     474.028
  O        9.892     544.882     471.807
  O        8.433     544.201     473.821
  H        9.608     544.013     471.480
  H       13.046     544.913     474.148
  H       12.090     546.347     473.859
  H       12.342     545.191     472.573

 6  7  8  9  10  11  12  13  14  15  25  28  32  33  34  35 0
 6-311+G(2d,p)
 ****
 36  39  40 0
 6-311+G(2d,p)
 ****
 1  2  3  4  5  16  17  18  19  20  21  22  23  24 0
 3-21G
 ****
 26  27  29  30  31  37  38  41  42  43  44  45  46  47  48 0
 3-21G
 ****


