%nproc=1
%NoSave
%Mem=1900MB
#P OB98/GEN NMR

erre ene a

0 1
  C      117.017     147.606     127.154
  O      116.556     148.854     126.677
  H      117.659     147.155     126.395
  H      116.168     146.942     127.336
  H      117.591     147.736     128.073
  P      115.663     149.730     127.682
  C      113.503     149.615     126.251
  O      114.142     149.254     127.467
  C      112.290     148.722     125.994
  O      112.731     147.332     125.947
  C      111.193     148.820     127.065
  O      109.924     148.669     126.416
  C      111.439     147.585     127.916
  O      110.286     147.192     128.658
  C      111.868     146.594     126.835
  N      111.159     141.852     128.359
  C      110.280     142.751     127.788
  N      109.014     142.324     127.593
  N      110.612     143.966     127.439
  C      111.920     144.248     127.662
  C      112.888     143.451     128.223
  C      112.499     142.116     128.630
  O      113.228     141.282     129.158
  N      114.086     144.114     128.305
  C      113.842     145.307     127.793
  N      112.541     145.437     127.391
  O      115.703     151.182     127.009
  O      116.130     149.755     129.098
  H      110.193     147.805     129.415
  H      116.422     151.714     127.397
  H      110.849     140.933     128.621
  H      114.564     146.107     127.696
  H      111.017     146.217     126.253
  H      112.255     147.770     128.625
  H      108.699     141.388     127.792
  H      111.206     149.750     127.641
  H      108.366     142.955     127.135
  H      111.888     148.957     125.002
  H      114.215     149.500     125.428
  H      113.189     150.663     126.306
  P      109.007     149.970     126.245
  C      106.876     149.449     127.643
  O      108.119     150.131     127.571
  O      107.930     149.505     125.154
  O      109.746     151.190     125.806
  H      107.609     150.279     124.654
  H      106.409     149.657     128.583
  H      107.041     148.396     127.552
  H      106.241     149.780     126.848

 6  7  8  9  10  11  12  13  14  15  26  29  33  34 0
 6-311+G(2d,p)
 ****
 36  38  39  40  41 0
 6-311+G(2d,p)
 ****
 1  2  3  4  5  16  17  18  19  20  21  22  23  24  25 0
 3-21G
 ****
 27  28  30  31  32  35  37  42  43  44  45  46  47 0
 3-21G
 ****
 48  49 0
 3-21G
 ****


