%nproc=1
%NoSave
%Mem=1900MB
#P OB98/GEN NMR

erre ene a

0 1
  C      238.509     -24.940    -241.052
  O      237.831     -25.471    -242.175
  P      237.010     -26.837    -241.963
  C      238.234     -27.690    -244.097
  O      237.829     -27.963    -242.758
  C      239.691     -28.093    -244.304
  O      240.558     -27.195    -243.590
  C      240.027     -29.481    -243.788
  O      239.566     -30.473    -244.686
  C      241.544     -29.403    -243.678
  O      242.170     -29.731    -244.930
  C      241.781     -27.918    -243.315
  N      242.206     -27.740    -241.937
  C      243.586     -27.822    -241.712
  O      244.353     -28.054    -242.648
  N      244.052     -27.683    -240.428
  C      243.214     -27.480    -239.459
  N      243.733     -27.343    -238.207
  C      241.754     -27.409    -239.653
  C      241.320     -27.551    -240.905
  O      235.706     -26.620    -242.860
  O      236.682     -27.152    -240.543
  H      241.817     -30.610    -245.180
  H      234.959     -27.150    -242.521
  H      241.096     -27.238    -238.810
  H      240.263     -27.511    -241.137
  H      242.546     -27.483    -243.970
  H      241.936     -30.102    -242.935
  H      239.593     -29.640    -242.793
  H      239.920     -28.012    -245.373
  H      244.737     -27.406    -238.108
  H      238.132     -26.619    -244.292
  H      243.167     -27.162    -237.392
  H      237.577     -28.234    -244.783
  P      238.515     -31.546    -244.138
  C      240.350     -33.302    -244.486
  O      239.412     -32.751    -243.584
  O      237.921     -32.163    -245.493
  O      237.440     -31.045    -243.231
  H      237.187     -32.771    -245.288
  H      240.994     -33.996    -243.947
  H      240.970     -32.512    -244.923
  H      239.831     -33.848    -245.280
  H      239.010     -24.037    -241.332
  H      239.226     -25.651    -240.699
  H      237.803     -24.730    -240.276

 3  4  5  6  7  8  9  10  11  12  13  21  23  27  28  29  30  32 0
 6-311+G(2d,p)
 ****
 34  35 0
 6-311+G(2d,p)
 ****
 1  2  14  15  16  17  18  19  20  22  24  25  26 0
 3-21G
 ****
 31  33  36  37  38  39  40  41  42  43  44  45  46 0
 3-21G
 ****


