%nproc=1
%NoSave
%Mem=1900MB
#P OB98/GEN NMR

erre ene a

0 1
  C      332.305     196.383      93.370
  O      333.341     195.469      93.695
  P      334.357     195.060      92.516
  C      332.688     193.231      91.705
  O      333.483     194.361      91.370
  C      331.988     192.687      90.463
  O      330.980     193.617      90.014
  C      332.904     192.473      89.264
  O      333.690     191.302      89.423
  C      331.878     192.402      88.138
  O      331.264     191.101      88.111
  C      330.854     193.463      88.575
  N      330.556     196.053      84.166
  C      330.306     194.758      84.470
  N      330.428     194.140      85.660
  C      330.852     195.001      86.603
  C      331.168     196.338      86.436
  C      331.000     196.870      85.147
  N      331.259     198.189      84.841
  N      331.593     196.892      87.626
  C      331.524     195.909      88.500
  N      331.070     194.751      87.932
  O      335.176     193.843      93.151
  O      335.257     196.163      92.053
  H      331.957     190.460      87.853
  H      336.100     193.840      92.834
  H      329.959     194.140      83.645
  H      331.785     195.989      89.544
  H      329.820     193.159      88.368
  H      332.313     192.583      87.150
  H      333.559     193.343      89.121
  H      331.492     191.747      90.737
  H      331.931     193.524      92.439
  H      331.259     198.451      83.864
  H      331.727     198.759      85.539
  H      333.332     192.470      92.158
  P      335.255     191.420      89.086
  C      334.812     190.523      86.718
  O      335.287     191.611      87.489
  O      335.735     189.901      89.263
  O      335.998     192.436      89.881
  H      335.157     189.278      88.796
  H      334.844     190.805      85.664
  H      333.778     190.284      86.993
  H      335.449     189.649      86.866
  H      331.707     196.567      94.238
  H      331.693     195.968      92.596
  H      332.734     197.303      93.031

 3  4  5  6  7  8  9  10  11  12  22  25  29  30  31  32 0
 6-311+G(2d,p)
 ****
 33  36  37 0
 6-311+G(2d,p)
 ****
 1  2  13  14  15  16  17  18  19  20  21  23  24  26 0
 3-21G
 ****
 27  28  34  35  38  39  40  41  42  43  44  45  46  47  48 0
 3-21G
 ****


