%nproc=1
%NoSave
%Mem=1900MB
#P OB98/GEN NMR

erre ene a

0 1
  C      272.499    -837.884     386.410
  O      271.280    -837.137     386.483
  P      271.227    -835.568     386.810
  C      271.297    -834.451     384.481
  O      270.497    -834.795     385.610
  C      270.721    -833.249     383.725
  O      269.481    -833.590     383.090
  C      270.406    -832.037     384.604
  O      271.596    -831.345     384.961
  C      269.464    -831.256     383.696
  O      270.196    -830.476     382.734
  C      268.684    -832.393     382.997
  N      267.353    -832.586     383.574
  C      266.323    -831.811     383.030
  O      266.557    -830.978     382.150
  N      265.036    -831.993     383.508
  C      264.828    -832.803     384.497
  N      263.547    -832.943     384.928
  C      265.905    -833.573     385.165
  C      267.134    -833.406     384.648
  O      272.553    -834.981     387.191
  O      270.191    -835.428     388.031
  H      269.550    -829.898     382.296
  H      270.448    -834.672     388.587
  H      265.702    -834.219     385.997
  H      267.969    -833.942     385.071
  H      268.573    -832.177     381.927
  H      268.823    -830.564     384.251
  H      269.869    -832.364     385.503
  H      271.442    -832.976     382.943
  H      262.837    -832.405     384.451
  H      271.322    -835.321     383.807
  H      263.277    -833.550     385.685
  H      272.318    -834.244     384.817
  P      271.665    -830.547     386.352
  C      274.130    -831.105     386.815
  O      273.174    -830.076     386.566
  O      271.039    -831.238     387.520
  O      270.910    -829.167     386.020
  H      270.472    -828.853     386.834
  H      275.122    -830.728     386.551
  H      273.906    -831.993     386.218
  H      274.120    -831.354     387.875
  H      272.278    -838.905     386.179
  H      273.006    -837.832     387.351
  H      273.124    -837.473     385.645

 3  4  5  6  7  8  9  10  11  12  13  23  27  28  29  30  32 0
 6-311+G(2d,p)
 ****
 34  35 0
 6-311+G(2d,p)
 ****
 1  2  14  15  16  17  18  19  20  21  22  24  25  26 0
 3-21G
 ****
 31  33  36  37  38  39  40  41  42  43  44  45  46 0
 3-21G
 ****


