%nproc=1
%NoSave
%Mem=1900MB
#P OB98/GEN NMR

erre ene a

0 1
  C     -160.738      97.739    -124.438
  O     -160.000      98.916    -124.764
  P     -158.773      99.480    -123.916
  C     -157.455     100.244    -126.050
  O     -158.026     100.588    -124.797
  C     -156.825     101.444    -126.778
  O     -157.825     102.479    -126.961
  C     -155.711     102.062    -125.930
  O     -154.408     101.511    -125.956
  C     -155.762     103.548    -126.252
  O     -154.852     103.917    -127.290
  C     -157.208     103.760    -126.710
  N     -157.478     107.819    -123.607
  C     -156.415     107.366    -124.360
  N     -155.256     108.050    -124.240
  N     -156.476     106.327    -125.150
  C     -157.664     105.685    -125.110
  C     -158.786     106.022    -124.388
  C     -158.726     107.212    -123.562
  O     -159.643     107.662    -122.884
  N     -159.802     105.123    -124.583
  C     -159.289     104.226    -125.400
  N     -157.992     104.527    -125.757
  O     -157.917      98.453    -123.254
  O     -159.490     100.340    -122.753
  H     -155.061     103.380    -128.076
  H     -158.918     100.269    -121.962
  H     -157.382     108.640    -123.034
  H     -159.808     103.349    -125.770
  H     -157.247     104.312    -127.656
  H     -155.485     104.143    -125.372
  H     -155.110     108.781    -123.563
  H     -156.026     101.980    -124.882
  H     -154.421     107.596    -124.619
  H     -156.498     101.164    -127.781
  H     -158.257      99.809    -126.655
  H     -156.707      99.462    -125.917
  P     -153.747     100.587    -124.828
  C     -152.215      99.588    -126.623
  O     -152.289     100.162    -125.329
  O     -154.564      99.213    -124.926
  O     -153.805     101.141    -123.442
  H     -154.423      98.677    -124.125
  H     -151.259      99.067    -126.727
  H     -152.277     100.375    -127.377
  H     -153.028      98.869    -126.775
  H     -161.506      97.586    -125.168
  H     -161.182      97.853    -123.471
  H     -160.079      96.896    -124.431

 3  4  5  6  7  8  9  10  11  12  23  26  30  31 0
 6-311+G(2d,p)
 ****
 33  35  36  37  38 0
 6-311+G(2d,p)
 ****
 1  2  13  14  15  16  17  18  19  20  21  22  24  25 0
 3-21G
 ****
 27  28  29  32  34  39  40  41  42  43  44  45  46  47  48  49 0
 3-21G
 ****


