%nproc=1
%NoSave
%Mem=1900MB
#P OB98/GEN NMR

erre ene a

0 1
  C      346.205    -275.981      52.523
  O      345.204    -276.593      53.306
  H      345.740    -275.545      51.636
  H      346.936    -276.727      52.202
  H      346.705    -275.188      53.086
  P      345.637    -277.165      54.742
  C      344.625    -275.131      55.997
  O      345.786    -275.897      55.716
  C      345.014    -273.745      56.511
  O      345.881    -273.110      55.536
  C      343.818    -272.819      56.750
  O      344.070    -272.040      57.923
  C      343.814    -271.914      55.533
  O      343.185    -270.658      55.781
  C      345.311    -271.828      55.205
  N      345.533    -271.480      53.805
  C      345.844    -270.146      53.531
  O      345.911    -269.325      54.448
  N      346.015    -269.759      52.227
  C      345.809    -270.611      51.272
  N      345.963    -270.158      49.998
  C      345.411    -272.012      51.510
  C      345.301    -272.378      52.786
  O      347.149    -277.633      54.515
  O      344.776    -278.260      55.279
  H      343.623    -270.243      56.556
  H      347.370    -278.401      55.077
  H      345.225    -272.677      50.680
  H      345.007    -273.383      53.059
  H      345.801    -271.076      55.837
  H      343.274    -272.404      54.713
  H      342.873    -273.357      56.867
  H      345.603    -273.866      57.429
  H      346.218    -269.184      49.874
  H      344.039    -275.643      56.767
  H      345.783    -270.719      49.178
  H      344.017    -275.044      55.091
  P      343.661    -272.697      59.327
  C      346.083    -272.876      60.249
  O      344.903    -273.564      59.854
  O      342.575    -273.797      58.918
  O      343.110    -271.716      60.308
  H      341.686    -273.511      59.201
  H      346.817    -273.584      60.574
  H      345.854    -272.206      61.051
  H      346.467    -272.320      59.419

 6  7  8  9  10  11  12  13  14  15  16  26  30  31  32  33  35 0
 6-311+G(2d,p)
 ****
 37  38 0
 6-311+G(2d,p)
 ****
 1  2  3  4  5  17  18  19  20  21  22  23  24  25 0
 3-21G
 ****
 27  28  29  34  36  39  40  41  42  43  44  45  46 0
 3-21G
 ****


