%nproc=1
%NoSave
%Mem=1900MB
#P OB98/GEN NMR

erre ene a

0 1
  C      200.139    -342.355    -110.254
  O      201.523    -342.160    -110.035
  H      199.715    -342.873    -109.389
  H      199.984    -342.971    -111.145
  H      199.633    -341.391    -110.374
  P      202.340    -341.412    -111.194
  C      201.774    -339.049    -110.275
  O      202.795    -339.990    -110.585
  C      202.395    -337.712    -109.861
  O      203.162    -337.906    -108.638
  C      203.344    -337.110    -110.913
  O      203.176    -335.685    -110.923
  C      204.721    -337.445    -110.365
  O      205.726    -336.566    -110.868
  C      204.467    -337.326    -108.867
  N      209.426    -337.541    -108.001
  C      208.692    -336.709    -108.824
  N      209.386    -335.782    -109.529
  N      207.396    -336.770    -108.949
  C      206.822    -337.719    -108.160
  C      207.436    -338.616    -107.317
  C      208.878    -338.550    -107.206
  O      209.583    -339.277    -106.509
  N      206.510    -339.448    -106.721
  C      205.348    -339.052    -107.211
  N      205.485    -338.004    -108.081
  O      201.207    -341.010    -112.254
  O      203.440    -342.206    -111.820
  H      205.790    -336.708    -111.835
  H      201.566    -340.991    -113.160
  H      210.424    -337.462    -107.951
  H      204.388    -339.488    -106.969
  H      204.445    -336.283    -108.529
  H      204.994    -338.473    -110.635
  H      210.384    -335.655    -109.460
  H      203.189    -337.504    -111.922
  H      208.863    -335.151    -110.130
  H      201.588    -337.016    -109.615
  H      201.169    -339.437    -109.450
  H      201.139    -338.910    -111.153
  P      202.873    -334.980    -112.333
  C      200.279    -334.865    -112.502
  O      201.490    -334.169    -112.214
  O      202.491    -336.229    -113.274
  O      204.029    -334.211    -112.884
  H      203.220    -336.384    -113.917
  H      199.449    -334.201    -112.381
  H      200.175    -335.692    -111.831
  H      200.305    -335.224    -113.510

 6  7  8  9  10  11  12  13  14  15  26  29  33  34 0
 6-311+G(2d,p)
 ****
 36  38  39  40  41 0
 6-311+G(2d,p)
 ****
 1  2  3  4  5  16  17  18  19  20  21  22  23  24  25 0
 3-21G
 ****
 27  28  30  31  32  35  37  42  43  44  45  46  47 0
 3-21G
 ****
 48  49 0
 3-21G
 ****


