%nproc=1
%NoSave
%Mem=1900MB
#P OB98/GEN NMR

erre ene a

0 1
  C      133.055     619.557     278.329
  O      131.894     618.991     277.726
  P      131.898     617.715     276.765
  C      129.952     616.552     278.090
  O      130.457     617.026     276.841
  C      128.494     616.078     278.005
  O      127.615     617.228     277.930
  C      128.271     615.265     276.729
  O      128.601     613.890     276.689
  C      126.823     615.569     276.332
  O      125.906     614.597     276.826
  C      126.567     616.932     276.973
  N      123.615     619.453     273.645
  C      123.312     618.336     274.400
  N      122.096     617.786     274.213
  N      124.151     617.801     275.247
  C      125.362     618.394     275.281
  C      125.779     619.490     274.557
  C      124.830     620.121     273.663
  O      125.036     621.113     272.975
  N      127.088     619.799     274.828
  C      127.473     618.874     275.681
  N      126.453     618.006     275.994
  O      133.090     616.827     276.886
  O      131.924     618.369     275.290
  H      126.207     613.719     276.528
  H      132.436     617.754     274.717
  H      122.926     619.840     273.024
  H      128.463     618.794     276.119
  H      125.625     616.932     277.540
  H      126.717     615.566     275.238
  H      121.456     618.080     273.493
  H      128.892     615.721     275.941
  H      121.961     616.851     274.601
  H      128.212     615.539     278.913
  H      130.045     617.383     278.799
  H      130.583     615.749     278.465
  P      128.741     612.987     275.378
  C      130.956     611.947     276.126
  O      129.618     611.702     275.749
  O      129.733     613.818     274.435
  O      127.455     612.687     274.668
  H      129.685     613.496     273.509
  H      131.529     611.021     276.057
  H      130.984     612.305     277.162
  H      131.418     612.693     275.475
  H      132.773     620.401     278.923
  H      133.737     619.869     277.566
  H      133.526     618.825     278.951

 3  4  5  6  7  8  9  10  11  12  23  26  30  31 0
 6-311+G(2d,p)
 ****
 33  35  36  37  38 0
 6-311+G(2d,p)
 ****
 1  2  13  14  15  16  17  18  19  20  21  22  24  25 0
 3-21G
 ****
 27  28  29  32  34  39  40  41  42  43  44  45  46  47  48  49 0
 3-21G
 ****


