%nproc=1
%NoSave
%Mem=1900MB
#P OB98/GEN NMR

erre ene a

0 1
  C      -20.354    -169.260      35.823
  O      -20.366    -170.477      35.101
  H      -19.461    -168.694      35.544
  H      -20.323    -169.460      36.898
  H      -21.240    -168.668      35.579
  P      -21.577    -171.480      35.421
  C      -23.140    -170.050      33.930
  O      -22.928    -170.641      35.203
  C      -24.475    -170.504      33.345
  O      -25.501    -170.513      34.362
  C      -24.992    -169.632      32.206
  O      -24.402    -170.008      30.973
  C      -26.483    -169.929      32.260
  O      -26.785    -171.183      31.610
  C      -26.737    -170.026      33.770
  N      -30.526    -167.605      36.068
  C      -30.495    -168.849      35.471
  N      -31.654    -169.545      35.460
  N      -29.427    -169.367      34.923
  C      -28.357    -168.538      34.955
  C      -28.261    -167.283      35.514
  C      -29.437    -166.747      36.165
  O      -29.505    -165.688      36.782
  N      -26.999    -166.767      35.360
  C      -26.347    -167.692      34.682
  N      -27.130    -168.783      34.409
  O      -21.506    -171.654      37.013
  O      -21.514    -172.800      34.732
  H      -26.625    -171.093      30.655
  H      -21.723    -172.580      37.236
  H      -31.367    -167.271      36.501
  H      -25.311    -167.625      34.377
  H      -27.518    -170.758      34.007
  H      -27.064    -169.166      31.740
  H      -32.548    -169.096      35.595
  H      -24.826    -168.568      32.417
  H      -31.647    -170.424      34.958
  H      -24.350    -171.541      33.009
  H      -22.329    -170.351      33.259
  H      -23.134    -168.960      34.033
  P      -24.353    -168.921      29.796
  C      -22.037    -167.867      30.314
  O      -23.446    -167.693      30.296
  O      -25.836    -168.319      29.802
  O      -24.005    -169.471      28.455
  H      -26.337    -168.665      29.041
  H      -21.571    -166.971      30.668
  H      -21.691    -168.082      29.324
  H      -21.786    -168.679      30.964

 6  7  8  9  10  11  12  13  14  15  26  29  33  34 0
 6-311+G(2d,p)
 ****
 36  38  39  40  41 0
 6-311+G(2d,p)
 ****
 1  2  3  4  5  16  17  18  19  20  21  22  23  24  25 0
 3-21G
 ****
 27  28  30  31  32  35  37  42  43  44  45  46  47 0
 3-21G
 ****
 48  49 0
 3-21G
 ****


