%nproc=1
%NoSave
%Mem=1900MB
#P OB98/GEN NMR

erre ene a

0 1
  C      195.326    -159.723     161.167
  O      195.434    -160.766     160.199
  P      194.073    -161.161     159.435
  C      193.347    -163.139     160.943
  O      193.075    -161.812     160.516
  C      192.434    -163.557     162.098
  O      192.653    -164.950     162.467
  C      192.625    -162.718     163.372
  O      191.338    -162.603     163.994
  C      193.506    -163.614     164.229
  O      193.465    -163.233     165.601
  C      192.901    -164.976     163.895
  N      193.975    -168.336     167.504
  C      193.102    -167.266     167.517
  N      192.370    -167.095     168.643
  N      192.958    -166.436     166.518
  C      193.727    -166.757     165.442
  C      194.610    -167.799     165.305
  C      194.787    -168.692     166.435
  O      195.541    -169.658     166.475
  N      195.183    -167.809     164.050
  C      194.682    -166.729     163.470
  N      193.760    -166.097     164.245
  O      194.514    -162.396     158.520
  O      193.494    -160.045     158.624
  H      194.252    -163.626     166.036
  H      194.658    -162.103     157.599
  H      194.057    -168.937     168.313
  H      194.938    -166.389     162.478
  H      191.948    -165.144     164.408
  H      194.549    -163.553     163.890
  H      192.395    -167.724     169.433
  H      193.062    -161.730     163.204
  H      191.699    -166.341     168.663
  H      191.392    -163.473     161.759
  H      194.388    -163.219     161.273
  H      193.245    -163.821     160.089
  P      190.556    -161.217     163.830
  C      192.224    -159.766     165.192
  O      191.640    -160.042     163.929
  O      189.751    -161.087     165.214
  O      189.628    -161.152     162.664
  H      188.864    -160.712     165.042
  H      193.213    -159.326     165.037
  H      192.333    -160.675     165.791
  H      191.593    -159.051     165.735
  H      196.284    -159.546     161.609
  H      194.631    -160.013     161.927
  H      194.982    -158.829     160.691

 3  4  5  6  7  8  9  10  11  12  23  26  30  31 0
 6-311+G(2d,p)
 ****
 33  35  36  37  38 0
 6-311+G(2d,p)
 ****
 1  2  13  14  15  16  17  18  19  20  21  22  24  25 0
 3-21G
 ****
 27  28  29  32  34  39  40  41  42  43  44  45  46  47  48  49 0
 3-21G
 ****


