%nproc=1
%NoSave
%Mem=1900MB
#P OB98/GEN NMR

erre ene a

0 1
  C      297.365    -484.675      81.257
  O      297.460    -483.351      80.776
  H      297.137    -484.648      82.326
  H      298.324    -485.181      81.120
  H      296.575    -485.227      80.740
  P      297.395    -483.141      79.186
  C      299.397    -481.497      79.031
  O      297.997    -481.682      78.890
  C      299.743    -480.007      79.050
  O      299.629    -479.523      80.425
  C      301.165    -479.683      78.557
  O      301.132    -478.443      77.838
  C      301.926    -479.462      79.852
  O      303.083    -478.654      79.665
  C      300.845    -478.806      80.706
  N      303.523    -476.454      84.241
  C      303.212    -476.074      82.951
  N      303.742    -474.912      82.504
  N      302.445    -476.775      82.156
  C      301.963    -477.905      82.736
  C      302.202    -478.394      83.999
  C      303.066    -477.615      84.862
  O      303.398    -477.909      86.006
  N      301.576    -479.604      84.180
  C      300.984    -479.851      83.026
  N      301.190    -478.850      82.118
  O      295.826    -482.963      78.921
  O      297.977    -484.250      78.372
  H      303.484    -478.483      80.541
  H      295.433    -483.822      78.672
  H      304.135    -475.885      84.805
  H      300.415    -480.741      82.795
  H      300.687    -477.750      80.450
  H      302.236    -480.424      80.275
  H      304.319    -474.303      83.066
  H      301.608    -480.463      77.930
  H      303.489    -474.603      81.573
  H      298.996    -479.466      78.458
  H      299.910    -481.968      78.186
  H      299.733    -481.980      79.954
  P      301.506    -478.468      76.277
  C      302.668    -476.161      75.947
  O      301.514    -476.959      75.728
  O      300.201    -479.098      75.601
  O      302.726    -479.267      75.961
  H      300.456    -479.640      74.834
  H      302.516    -475.190      75.524
  H      303.514    -476.623      75.484
  H      302.843    -476.068      76.998

 6  7  8  9  10  11  12  13  14  15  26  29  33  34 0
 6-311+G(2d,p)
 ****
 36  38  39  40  41 0
 6-311+G(2d,p)
 ****
 1  2  3  4  5  16  17  18  19  20  21  22  23  24  25 0
 3-21G
 ****
 27  28  30  31  32  35  37  42  43  44  45  46  47 0
 3-21G
 ****
 48  49 0
 3-21G
 ****


