%nproc=1
%NoSave
%Mem=1900MB
#P OB98/GEN NMR

erre ene a

0 1
  C      145.064     -48.231     -33.351
  O      144.036     -48.905     -34.053
  P      144.300     -49.501     -35.514
  C      143.022     -47.702     -36.813
  O      144.298     -48.272     -36.548
  C      142.897     -47.276     -38.276
  O      143.768     -46.136     -38.513
  C      143.276     -48.360     -39.294
  O      142.427     -48.172     -40.432
  C      144.706     -47.992     -39.660
  O      145.117     -48.544     -40.903
  C      144.607     -46.471     -39.639
  N      148.867     -45.036     -42.076
  C      147.773     -45.706     -42.498
  N      146.692     -46.074     -41.781
  C      146.810     -45.675     -40.503
  C      147.878     -45.011     -39.922
  C      148.943     -44.670     -40.773
  N      150.050     -43.955     -40.370
  N      147.652     -44.828     -38.569
  C      146.474     -45.370     -38.344
  N      145.898     -45.836     -39.495
  O      143.421     -50.643     -35.905
  O      145.839     -49.943     -35.480
  H      145.959     -48.122     -41.164
  H      145.902     -50.917     -35.429
  H      147.761     -45.979     -43.550
  H      145.993     -45.454     -37.379
  H      144.134     -46.075     -40.546
  H      145.388     -48.360     -38.885
  H      143.189     -49.380     -38.911
  H      141.867     -46.934     -38.445
  H      142.904     -46.822     -36.171
  H      150.686     -43.650     -41.089
  H      150.012     -43.446     -39.489
  H      142.234     -48.421     -36.561
  P      141.742     -49.439     -41.136
  C      143.615     -49.527     -42.880
  O      142.915     -50.240     -41.875
  O      140.546     -49.137     -41.975
  O      141.371     -50.397     -39.903
  H      140.711     -51.056     -40.188
  H      143.034     -49.540     -43.805
  H      144.577     -50.014     -43.057
  H      143.791     -48.493     -42.577
  H      144.695     -47.909     -32.400
  H      145.383     -47.380     -33.916
  H      145.891     -48.894     -33.207

 3  4  5  6  7  8  9  10  11  12  22  25  29  30  31  32 0
 6-311+G(2d,p)
 ****
 33  36  37 0
 6-311+G(2d,p)
 ****
 1  2  13  14  15  16  17  18  19  20  21  23  24  26 0
 3-21G
 ****
 27  28  34  35  38  39  40  41  42  43  44  45  46  47  48 0
 3-21G
 ****


