%nproc=1
%NoSave
%Mem=1900MB
#P OB98/GEN NMR

erre ene a

0 1
  C     1140.483    -358.674     773.618
  O     1139.576    -357.591     773.480
  P     1138.080    -357.924     772.962
  C     1136.703    -357.889     775.167
  O     1137.059    -357.204     773.959
  C     1136.373    -356.860     776.264
  O     1137.506    -356.074     776.613
  C     1135.298    -355.836     775.856
  O     1133.985    -356.362     775.980
  C     1135.525    -354.736     776.899
  O     1134.902    -355.104     778.146
  C     1137.066    -354.745     777.014
  N     1138.632    -349.926     776.935
  C     1138.221    -350.710     777.983
  N     1138.110    -350.102     779.203
  N     1137.871    -351.989     777.910
  C     1138.000    -352.447     776.634
  C     1138.455    -351.799     775.496
  C     1138.788    -350.402     775.629
  O     1139.131    -349.637     774.723
  N     1138.456    -352.633     774.416
  C     1138.048    -353.788     774.879
  N     1137.716    -353.713     776.219
  O     1137.910    -359.482     773.305
  O     1137.854    -357.660     771.501
  H     1133.928    -355.107     777.976
  H     1137.160    -359.849     772.804
  H     1138.874    -348.966     777.065
  H     1137.949    -354.676     774.287
  H     1137.368    -354.619     778.054
  H     1135.126    -353.776     776.576
  H     1138.266    -349.095     779.319
  H     1135.470    -355.436     774.850
  H     1137.724    -350.622     779.979
  H     1136.043    -357.406     777.158
  H     1137.555    -358.497     775.499
  H     1135.828    -358.510     774.973
  P     1132.852    -355.676     775.068
  C     1133.086    -357.490     773.173
  O     1132.247    -356.865     774.177
  O     1133.693    -354.784     774.027
  O     1131.858    -354.849     775.827
  H     1133.185    -354.045     773.700
  H     1132.620    -358.407     772.877
  H     1134.074    -357.707     773.587
  H     1133.194    -356.794     772.322
  H     1141.426    -358.307     773.966
  H     1140.614    -359.152     772.670
  H     1140.093    -359.379     774.322

 3  4  5  6  7  8  9  10  11  12  23  26  30  31 0
 6-311+G(2d,p)
 ****
 33  35  36  37  38 0
 6-311+G(2d,p)
 ****
 1  2  13  14  15  16  17  18  19  20  21  22  24  25 0
 3-21G
 ****
 27  28  29  32  34  39  40  41  42  43  44  45  46  47  48  49 0
 3-21G
 ****


