%nproc=1
%NoSave
%Mem=1900MB
#P OB98/GEN NMR

erre ene a

0 1
  C        0.576     -10.612      93.308
  O        0.924      -9.229      93.407
  P        1.102      -8.422      92.032
  C        3.072      -7.693      90.514
  O        2.638      -8.531      91.576
  C        4.163      -8.369      89.677
  O        5.467      -8.220      90.309
  C        3.939      -9.870      89.472
  O        4.447     -10.213      88.175
  C        4.832     -10.498      90.524
  O        5.119     -11.861      90.226
  C        6.022      -9.541      90.478
  N       10.802      -9.557      92.268
  C       10.307      -9.476      91.015
  N        9.016      -9.502      90.619
  C        8.198      -9.579      91.684
  C        8.556      -9.680      93.018
  C        9.932      -9.668      93.301
  N       10.440      -9.778      94.576
  N        7.434      -9.792      93.815
  C        6.420      -9.765      92.974
  N        6.828      -9.607      91.680
  O        0.949      -6.893      92.483
  O        0.099      -8.785      90.986
  H        4.282     -12.369      90.282
  H        0.095      -6.540      92.174
  H       11.045      -9.383      90.222
  H        5.380      -9.862      93.245
  H        6.690      -9.746      89.629
  H        4.336     -10.457      91.504
  H        2.896     -10.192      89.559
  H        4.211      -7.867      88.703
  H        3.460      -6.753      90.916
  H       11.441      -9.790      94.690
  H        9.805      -9.908      95.348
  H        2.207      -7.422      89.898
  P        3.359     -10.506      87.035
  C        2.202     -12.678      86.217
  O        2.844     -12.002      87.280
  O        4.233     -10.617      85.698
  O        2.296      -9.463      86.924
  H        3.689     -10.394      84.921
  H        2.539     -13.720      86.208
  H        2.428     -12.229      85.245
  H        1.123     -12.657      86.379
  H        0.489     -11.029      94.290
  H        1.337     -11.133      92.765
  H       -0.358     -10.709      92.795

 3  4  5  6  7  8  9  10  11  12  22  25  29  30  31  32 0
 6-311+G(2d,p)
 ****
 33  36  37 0
 6-311+G(2d,p)
 ****
 1  2  13  14  15  16  17  18  19  20  21  23  24  26 0
 3-21G
 ****
 27  28  34  35  38  39  40  41  42  43  44  45  46  47  48 0
 3-21G
 ****


