%nproc=1
%NoSave
%Mem=1900MB
#P OB98/GEN NMR

erre ene a

0 1
  C     -121.368      59.064     333.252
  O     -121.973      59.980     332.352
  P     -121.286      60.179     330.914
  C     -122.748      58.327     329.745
  O     -121.465      58.780     330.149
  C     -122.879      58.406     328.222
  O     -122.922      59.789     327.805
  C     -121.720      57.785     327.454
  O     -121.801      56.366     327.429
  C     -121.878      58.453     326.090
  O     -122.903      57.795     325.329
  C     -122.337      59.871     326.485
  N     -121.258      60.858     326.446
  C     -120.954      61.384     325.193
  O     -121.544      61.062     324.165
  N     -119.927      62.294     325.164
  C     -119.155      62.667     326.225
  O     -118.219      63.453     326.132
  C     -119.501      62.051     327.514
  C     -120.520      61.188     327.564
  O     -119.741      60.220     331.330
  O     -121.780      61.384     330.189
  H     -119.574      59.725     332.151
  H     -123.051      58.343     324.533
  H     -119.707      62.709     324.271
  H     -118.903      62.316     328.377
  H     -120.783      60.718     328.502
  H     -123.138      60.210     325.820
  H     -120.959      58.424     325.497
  H     -120.768      58.091     327.903
  H     -123.828      57.937     327.934
  H     -123.513      58.957     330.211
  H     -122.886      57.296     330.088
  P     -120.478      55.582     326.967
  C     -119.444      55.280     329.349
  O     -119.364      55.884     328.075
  O     -120.026      56.453     325.702
  O     -120.715      54.135     326.668
  H     -120.108      57.409     325.855
  H     -118.457      55.312     329.816
  H     -119.768      54.237     329.276
  H     -120.147      55.839     329.973
  H     -121.930      59.035     334.162
  H     -120.367      59.378     333.461
  H     -121.352      58.089     332.811

 3  4  5  6  7  8  9  10  11  12  13  24  28  29  30  31  32 0
 6-311+G(2d,p)
 ****
 33  34 0
 6-311+G(2d,p)
 ****
 1  2  14  15  16  17  18  19  20  21  22  23  25  26  27 0
 3-21G
 ****
 35  36  37  38  39  40  41  42  43  44  45 0
 3-21G
 ****


