%nproc=1
%NoSave
%Mem=1900MB
#P OB98/GEN NMR

erre ene a

0 1
  C     -414.714      48.637     403.092
  O     -414.578      47.770     404.200
  H     -415.150      48.074     402.262
  H     -413.732      49.004     402.777
  H     -415.373      49.477     403.328
  P     -414.101      48.384     405.599
  C     -416.114      47.689     407.056
  O     -415.422      48.763     406.426
  C     -417.604      48.028     407.164
  O     -418.195      48.102     405.845
  C     -418.420      46.983     407.919
  O     -418.220      47.087     409.317
  C     -419.825      47.319     407.456
  O     -420.357      48.432     408.187
  C     -419.581      47.696     405.974
  N     -419.890      46.607     405.053
  C     -421.189      46.580     404.532
  O     -422.050      47.400     404.848
  N     -421.464      45.562     403.665
  C     -420.633      44.523     403.354
  O     -420.957      43.582     402.642
  C     -419.289      44.584     403.942
  C     -418.981      45.604     404.749
  O     -413.080      49.470     405.515
  O     -413.534      47.110     406.400
  H     -421.285      48.541     407.895
  H     -412.558      47.141     406.397
  H     -422.400      45.517     403.291
  H     -418.591      43.788     403.712
  H     -417.991      45.667     405.200
  H     -420.186      48.564     405.694
  H     -420.510      46.487     407.581
  H     -418.157      45.978     407.575
  H     -417.700      49.013     407.638
  H     -415.701      47.547     408.058
  H     -415.964      46.774     406.472
  P     -417.756      45.807     410.162
  C     -415.608      46.770     411.190
  O     -416.157      45.830     410.265
  O     -418.342      44.507     409.715
  O     -418.221      46.148     411.655
  H     -418.862      45.480     411.962
  H     -414.540      46.700     411.178
  H     -415.968      46.554     412.174
  H     -415.904      47.760     410.911

 6  7  8  9  10  11  12  13  14  15  16  26  31  32  33  34  35 0
 6-311+G(2d,p)
 ****
 36  37 0
 6-311+G(2d,p)
 ****
 1  2  3  4  5  17  18  19  20  21  22  23  24  25 0
 3-21G
 ****
 27  28  29  30  38  39  40  41  42  43  44  45 0
 3-21G
 ****


