%nproc=1
%NoSave
%Mem=1900MB
#P OB98/GEN NMR

erre ene a

0 1
  C     -232.549      83.139     -83.528
  O     -231.859      81.884     -83.475
  P     -231.657      81.246     -82.011
  C     -233.902      80.061     -81.455
  O     -232.565      79.923     -81.917
  C     -234.865      79.129     -82.197
  O     -234.803      79.416     -83.616
  C     -234.570      77.633     -82.027
  O     -235.818      76.925     -81.968
  C     -233.895      77.258     -83.335
  O     -234.001      75.865     -83.615
  C     -234.654      78.163     -84.304
  N     -234.325      76.665     -89.126
  C     -235.248      76.326     -88.158
  N     -236.208      75.443     -88.522
  N     -235.237      76.806     -86.942
  C     -234.240      77.702     -86.728
  C     -233.268      78.126     -87.612
  C     -233.271      77.551     -88.941
  O     -232.449      77.771     -89.824
  N     -232.429      79.043     -87.025
  C     -232.885      79.167     -85.795
  N     -233.977      78.366     -85.566
  O     -232.394      82.294     -81.053
  O     -230.226      81.068     -81.625
  H     -234.903      75.589     -83.362
  H     -231.777      82.614     -80.370
  H     -234.368      76.246     -90.040
  H     -232.453      79.795     -85.028
  H     -235.655      77.771     -84.516
  H     -232.832      77.520     -83.283
  H     -236.314      75.084     -89.458
  H     -233.959      77.388     -81.152
  H     -236.922      75.219     -87.839
  H     -235.885      79.356     -81.863
  H     -234.226      81.097     -81.593
  H     -233.924      79.846     -80.379
  P     -236.116      76.118     -80.614
  C     -236.498      77.753     -78.625
  O     -237.055      77.077     -79.733
  O     -234.713      76.153     -79.844
  O     -236.615      74.727     -80.827
  H     -234.632      75.381     -79.253
  H     -235.406      77.691     -78.608
  H     -236.891      77.312     -77.704
  H     -236.790      78.807     -78.670
  H     -232.623      83.463     -84.545
  H     -232.009      83.867     -82.960
  H     -233.531      83.024     -83.118

 3  4  5  6  7  8  9  10  11  12  23  26  30  31  33  0
 6-311+G(2d,p)
 ****
 35  36  37  38 0
 6-311+G(2d,p)
 ****
 1  2  13  14  15  16  17  18  19  20  21  22  24  25  27  28  29 0
 3-21G
 ****
 32  34  39  40  41  42  43  44  45  46  47  48  49 0
 3-21G
 ****


