%nproc=1
%NoSave
%Mem=1900MB
#P OB98/GEN NMR

erre ene a

0 1
  C     -895.970    -840.326    1851.750
  O     -896.090    -839.752    1853.051
  H     -895.980    -839.523    1851.019
  H     -896.780    -841.006    1851.552
  H     -895.000    -840.854    1851.658
  P     -895.920    -840.708    1854.317
  C     -894.770    -839.174    1856.093
  O     -894.590    -840.181    1855.103
  C     -894.200    -837.827    1855.595
  O     -894.930    -837.419    1854.378
  C     -894.280    -836.683    1856.589
  O     -893.190    -835.768    1856.348
  C     -895.590    -836.032    1856.193
  O     -895.810    -834.775    1856.794
  C     -895.450    -836.090    1854.642
  N     -896.630    -835.819    1853.881
  C     -897.160    -834.525    1853.825
  O     -896.620    -833.574    1854.440
  N     -898.300    -834.355    1853.107
  C     -898.960    -835.292    1852.401
  O     -900.000    -835.050    1851.757
  C     -898.370    -836.643    1852.513
  C     -897.290    -836.848    1853.195
  O     -895.950    -842.182    1854.052
  O     -897.080    -840.241    1855.311
  H     -897.820    -840.884    1855.265
  H     -895.160    -834.149    1856.445
  H     -898.630    -833.411    1853.108
  H     -898.940    -837.434    1851.960
  H     -896.850    -837.865    1853.274
  H     -894.650    -835.371    1854.320
  H     -896.450    -836.663    1856.503
  H     -894.250    -837.037    1857.631
  H     -893.140    -838.007    1855.235
  H     -894.220    -839.485    1856.978
  H     -895.830    -839.066    1856.275
  P     -891.640    -836.304    1856.324
  C     -890.970    -836.194    1853.781
  O     -891.370    -837.000    1854.884
  O     -891.250    -837.121    1857.492
  O     -890.790    -834.896    1856.243
  H     -889.920    -835.096    1856.636
  H     -890.837    -836.812    1852.918
  H     -890.048    -835.703    1854.014
  H     -891.724    -835.461    1853.583

 6  7  8  9  10  11  12  13  14  15  16  27  31  32  33  34  35 0
 6-311+G(2d,p)
 ****
 36  37 0
 6-311+G(2d,p)
 ****
 1  2  3  4  5  17  18  19  20  21  22  23  24  25 0
 3-21G
 ****
 26  28  29  30  38  39  40  41  42  43  44  45 0
 3-21G
 ****


