%nproc=1
%NoSave
%Mem=1900MB
#P OB98/GEN NMR

erre ene a

0 1
  C      -77.948    1278.492    -558.200
  O      -79.282    1278.195    -557.819
  H      -77.274    1278.050    -557.465
  H      -77.785    1279.565    -558.221
  H      -77.736    1278.056    -559.188
  P      -80.500    1278.883    -558.615
  C      -81.032    1276.898    -560.138
  O      -80.479    1278.198    -560.074
  C      -81.500    1276.528    -561.538
  O      -82.432    1277.530    -562.009
  C      -80.345    1276.447    -562.570
  O      -80.489    1275.272    -563.353
  C      -80.556    1277.687    -563.448
  O      -79.982    1277.535    -564.731
  C      -82.089    1277.804    -563.385
  N      -82.569    1279.150    -563.772
  C      -82.567    1279.422    -565.164
  O      -82.165    1278.568    -565.973
  N      -82.989    1280.641    -565.590
  C      -83.308    1281.562    -564.723
  N      -83.691    1282.763    -565.200
  C      -83.279    1281.333    -563.255
  C      -82.896    1280.103    -562.863
  O      -80.460    1280.391    -558.622
  O      -81.810    1278.273    -557.934
  H      -80.169    1278.353    -565.263
  H      -82.589    1278.851    -558.132
  H      -83.545    1282.116    -562.572
  H      -82.840    1279.856    -561.820
  H      -82.560    1277.070    -564.036
  H      -80.088    1278.567    -562.966
  H      -79.352    1276.462    -562.111
  H      -82.039    1275.587    -561.511
  H      -83.724    1282.863    -566.220
  H      -81.872    1276.838    -559.435
  H      -83.996    1283.532    -564.624
  H      -80.249    1276.167    -559.820
  P      -79.746    1273.954    -562.774
  C      -81.853    1272.471    -562.596
  O      -80.808    1273.129    -561.907
  O      -78.743    1274.567    -561.675
  O      -79.003    1273.165    -563.817
  H      -77.842    1274.618    -562.035
  H      -82.480    1271.965    -561.893
  H      -81.437    1271.760    -563.280
  H      -82.432    1273.190    -563.137

 6  7  8  9  10  11  12  13  14  15  16  26  30  31  32  33  35 0
 6-311+G(2d,p)
 ****
 37  38 0
 6-311+G(2d,p)
 ****
 1  2  3  4  5  17  18  19  20  21  22  23  24  25 0
 3-21G
 ****
 27  28  29  34  36  39  40  41  42  43  44  45  46 0
 3-21G
 ****


