%nproc=1
%NoSave
%Mem=1900MB
#P OB98/GEN NMR

erre ene a

0 1
  C      162.810     -92.048     123.563
  O      161.808     -91.080     123.806
  H      163.737     -91.536     123.296
  H      162.510     -92.697     122.736
  H      162.983     -92.648     124.461
  P      160.373     -91.634     124.256
  C      159.887     -89.511     125.690
  O      159.492     -90.339     124.606
  C      159.203     -88.142     125.587
  O      159.828     -87.391     124.505
  C      157.701     -88.226     125.266
  O      157.043     -87.091     125.857
  C      157.698     -88.075     123.755
  O      156.409     -87.747     123.293
  C      158.772     -87.003     123.602
  N      157.579     -85.623     118.840
  C      156.895     -85.539     120.001
  N      157.287     -85.921     121.234
  C      158.539     -86.412     121.200
  C      159.357     -86.564     120.095
  C      158.828     -86.147     118.863
  N      159.510     -86.251     117.671
  N      160.565     -87.134     120.459
  C      160.475     -87.315     121.762
  N      159.271     -86.892     122.250
  O      160.666     -92.293     125.685
  O      159.729     -92.597     123.317
  H      156.386     -87.700     122.316
  H      160.864     -93.241     125.580
  H      155.900     -85.107     119.933
  H      161.240     -87.752     122.391
  H      158.416     -86.011     123.905
  H      157.997     -89.007     123.265
  H      157.232     -89.147     125.621
  H      159.384     -87.579     126.511
  H      160.973     -89.390     125.658
  H      159.604     -89.989     126.633
  H      159.047     -85.954     116.828
  H      160.428     -86.672     117.666
  P      155.594     -87.287     126.522
  C      155.671     -85.338     128.256
  O      155.053     -85.894     127.105
  O      155.949     -88.098     127.859
  O      154.611     -88.054     125.700
  H      155.327     -88.842     127.967
  H      155.191     -84.416     128.508
  H      156.706     -85.158     128.053
  H      155.582     -86.022     129.074

 6  7  8  9  10  11  12  13  14  15  25  28  32  33  34  35 0
 6-311+G(2d,p)
 ****
 36  37  40 0
 6-311+G(2d,p)
 ****
 1  2  3  4  5  16  17  18  19  20  21  22  23  24 0
 3-21G
 ****
 26  27  29  30  31  38  39 41  42  43  44  45  46  47  48 0
 3-21G
 ****


