%nproc=1
%NoSave
%Mem=1900MB
#P OB98/GEN NMR

erre ene a

0 1
  C     -143.282      34.739     104.025
  O     -143.452      35.115     102.669
  P     -144.916      35.201     102.021
  C     -144.520      33.268     100.372
  O     -145.268      33.725     101.492
  C     -145.059      31.928      99.875
  O     -144.212      31.453      98.801
  C     -145.083      30.848     100.951
  O     -146.235      30.024     100.752
  C     -143.846      30.012     100.672
  O     -144.005      28.668     101.159
  C     -143.732      30.141      99.150
  N     -139.957      26.862      97.984
  C     -141.226      26.659      98.399
  N     -142.167      27.576      98.716
  C     -141.701      28.819      98.511
  C     -140.431      29.182      98.087
  C     -139.531      28.136      97.819
  N     -138.240      28.346      97.384
  N     -140.311      30.557      98.025
  C     -141.491      31.011      98.385
  N     -142.368      30.000      98.678
  O     -145.097      36.280     101.012
  O     -145.897      35.381     103.268
  H     -144.107      28.727     102.132
  H     -146.622      35.996     103.044
  H     -141.527      25.619      98.494
  H     -141.759      32.054      98.460
  H     -144.356      29.402      98.634
  H     -142.982      30.455     101.180
  H     -145.088      31.258     101.966
  H     -146.061      32.087      99.458
  H     -143.478      33.144     100.680
  H     -137.710      27.537      97.102
  H     -137.981      29.280      97.096
  H     -144.559      34.020      99.577
  P     -146.805      29.283     102.065
  C     -146.282      26.962     101.009
  O     -146.074      27.858     102.077
  O     -148.298      29.286     102.106
  O     -146.101      30.129     103.229
  H     -145.272      30.553     102.915
  H     -145.736      26.038     101.216
  H     -145.902      27.389     100.077
  H     -147.346      26.729     100.905
  H     -142.240      34.740     104.268
  H     -143.682      33.758     104.176
  H     -143.796      35.435     104.655

 3  4  5  6  7  8  9  10  11  12  22  25  29  30  31  32 0
 6-311+G(2d,p)
 ****
 33  36  37 0
 6-311+G(2d,p)
 ****
 1  2  13  14  15  16  17  18  19  20  21  23  24  26 0
 3-21G
 ****
 27  28  34  35  38  39  40  41  42  43  44  45  46  47  48 0
 3-21G
 ****


