%nproc=1
%NoSave
%Mem=1900MB
#P OB98/GEN NMR

erre ene a

0 1
  C      -12.549      25.038     727.750
  O      -12.240      26.406     727.604
  H      -12.387      24.748     728.791
  H      -11.889      24.438     727.115
  H      -13.593      24.846     727.486
  P      -12.555      27.088     726.183
  C      -10.027      27.096     725.590
  O      -11.338      26.702     725.209
  C       -9.009      26.634     724.545
  O       -9.287      27.306     723.288
  C       -7.556      26.929     724.930
  O       -6.737      25.835     724.507
  C       -7.215      28.164     724.109
  O       -5.817      28.291     723.861
  C       -8.076      27.950     722.857
  N       -8.345      29.211     722.174
  C       -7.318      29.732     721.378
  O       -6.243      29.133     721.289
  N       -7.510      30.936     720.752
  C       -8.594      31.609     720.969
  N       -8.712      32.811     720.346
  C       -9.675      31.131     721.851
  C       -9.489      29.937     722.409
  O      -12.319      28.647     726.461
  O      -13.909      26.807     725.626
  H       -5.680      29.042     723.246
  H      -12.913      29.195     725.915
  H      -10.552      31.743     722.023
  H      -10.226      29.504     723.078
  H       -7.567      27.271     722.153
  H       -7.544      29.064     724.646
  H       -7.417      27.097     726.002
  H       -9.155      25.557     724.374
  H       -7.934      33.110     719.763
  H       -9.784      26.640     726.553
  H       -9.488      33.439     720.477
  H       -9.994      28.188     725.698
  P       -6.266      24.808     725.643
  C       -4.214      26.259     726.303
  O       -5.413      25.624     726.730
  O       -5.175      23.909     724.897
  O       -7.379      23.979     726.196
  H       -5.534      23.009     724.737
  H       -3.760      26.759     727.133
  H       -4.441      26.972     725.538
  H       -3.539      25.524     725.917

 6  7  8  9  10  11  12  13  14  15  16  26  30  31  32  33  35 0
 6-311+G(2d,p)
 ****
 37  38 0
 6-311+G(2d,p)
 ****
 1  2  3  4  5  17  18  19  20  21  22  23  24  25 0
 3-21G
 ****
 27  28  29  34  36  39  40  41  42  43  44  45  46 0
 3-21G
 ****


