%nproc=1
%NoSave
%Mem=1900MB
#P OB98/GEN NMR

erre ene a

0 1
  C      327.653     197.742     -67.505
  O      326.901     196.568     -67.755
  H      327.353     198.505     -68.227
  H      328.718     197.539     -67.622
  H      327.449     198.112     -66.496
  P      327.212     195.309     -66.810
  C      329.448     194.712     -67.976
  O      328.119     194.309     -67.678
  C      329.980     193.937     -69.177
  O      330.064     192.525     -68.880
  C      329.135     194.068     -70.441
  O      329.450     195.264     -71.139
  C      329.544     192.815     -71.205
  O      330.799     193.000     -71.894
  C      329.692     191.785     -70.076
  N      327.352     187.403     -71.002
  C      328.609     187.839     -71.370
  N      329.332     187.001     -72.151
  N      329.111     188.995     -71.021
  C      328.262     189.744     -70.276
  C      327.002     189.411     -69.827
  C      326.470     188.114     -70.200
  O      325.394     187.646     -69.855
  N      326.465     190.419     -69.075
  C      327.377     191.370     -69.094
  N      328.484     191.012     -69.822
  O      325.799     194.547     -66.728
  O      327.733     195.639     -65.450
  H      331.019     192.179     -72.370
  H      325.730     194.102     -65.863
  H      327.030     186.493     -71.295
  H      327.285     192.329     -68.601
  H      330.490     191.064     -70.274
  H      328.805     192.548     -71.962
  H      328.888     186.285     -72.716
  H      328.065     194.017     -70.200
  H      330.246     187.324     -72.446
  H      331.005     194.287     -69.364
  H      330.086     194.515     -67.111
  H      329.458     195.788     -68.191
  P      328.223     196.119     -71.735
  C      327.670     194.400     -73.612
  O      328.102     195.718     -73.286
  O      328.806     197.607     -71.785
  O      326.971     196.039     -70.940
  H      328.083     198.249     -71.867
  H      327.640     194.287     -74.676
  H      326.693     194.235     -73.209
  H      328.352     193.688     -73.197

 6  7  8  9  10  11  12  13  14  15  26  29  33  34 0
 6-311+G(2d,p)
 ****
 36  38  39  40  41 0
 6-311+G(2d,p)
 ****
 1  2  3  4  5  16  17  18  19  20  21  22  23  24  25 0
 3-21G
 ****
 27  28  30  31  32  35  37  42  43  44  45  46  47 0
 3-21G
 ****
 48  49 0
 3-21G
 ****


