%nproc=1
%NoSave
%Mem=1900MB
#P OB98/GEN NMR

erre ene a

0 1
  C       52.273    -269.523    -224.093
  O       53.058    -270.030    -223.032
  H       51.856    -270.362    -224.656
  H       52.891    -268.921    -224.762
  H       51.452    -268.917    -223.703
  P       53.672    -268.965    -222.004
  C       56.253    -269.310    -222.012
  O       55.010    -269.631    -221.412
  C       57.363    -270.158    -221.389
  O       57.492    -269.797    -219.987
  C       57.083    -271.664    -221.452
  O       58.316    -272.359    -221.671
  C       56.556    -271.978    -220.063
  O       56.713    -273.339    -219.685
  C       57.384    -271.009    -219.211
  N       56.775    -270.740    -217.912
  C       57.253    -271.453    -216.818
  O       58.201    -272.236    -216.853
  N       56.590    -271.240    -215.635
  C       55.513    -270.424    -215.452
  O       54.950    -270.291    -214.372
  C       55.046    -269.704    -216.644
  C       55.687    -269.893    -217.802
  O       52.660    -269.017    -220.768
  O       53.856    -267.584    -222.538
  H       51.945    -268.362    -220.883
  H       57.655    -273.481    -219.455
  H       56.927    -271.749    -214.832
  H       54.189    -269.053    -216.540
  H       55.361    -269.387    -218.704
  H       58.400    -271.397    -219.069
  H       55.491    -271.731    -220.002
  H       56.366    -271.931    -222.228
  H       58.315    -269.912    -221.874
  H       56.472    -268.251    -221.842
  H       56.195    -269.495    -223.091
  P       58.717    -272.686    -223.191
  C       58.347    -275.273    -223.172
  O       59.266    -274.195    -223.186
  O       60.025    -271.787    -223.371
  O       57.614    -272.405    -224.159
  H       60.581    -271.742    -222.575
  H       58.883    -276.199    -223.171
  H       57.725    -275.223    -224.041
  H       57.739    -275.212    -222.294

 6  7  8  9  10  11  12  13  14  15  16  27  31  32  33  34  35 0
 6-311+G(2d,p)
 ****
 36  37 0
 6-311+G(2d,p)
 ****
 1  2  3  4  5  17  18  19  20  21  22  23  24  25 0
 3-21G
 ****
 26  28  29  30  38  39  40  41  42  43  44  45 0
 3-21G
 ****


