%nproc=1
%NoSave
%Mem=1900MB
#P OB98/GEN NMR

erre ene a

0 1
  C      190.718     711.406    -302.175
  O      189.683     712.107    -301.487
  P      189.835     712.409    -299.910
  C      189.614     714.977    -300.157
  O      190.418     713.888    -299.720
  C      189.286     715.898    -298.971
  O      190.452     716.680    -298.572
  C      188.219     716.947    -299.302
  O      186.909     716.453    -299.495
  C      188.440     717.978    -298.221
  O      187.763     717.615    -297.009
  C      189.965     717.927    -298.036
  N      190.645     719.078    -298.652
  C      191.887     719.411    -298.144
  O      192.407     718.822    -297.203
  N      192.512     720.473    -298.741
  C      192.001     721.251    -299.759
  O      192.591     722.211    -300.232
  C      190.666     720.865    -300.233
  C      190.048     719.826    -299.673
  O      190.499     711.336    -299.115
  O      188.304     712.584    -299.444
  H      187.974     718.287    -296.333
  H      188.202     712.132    -298.575
  H      193.421     720.731    -298.396
  H      190.216     721.460    -301.020
  H      189.057     719.520    -300.009
  H      190.233     717.935    -296.970
  H      188.041     718.961    -298.518
  H      188.500     717.406    -300.262
  H      188.995     715.289    -298.108
  H      188.692     714.601    -300.608
  H      190.142     715.516    -300.943
  P      185.910     717.023    -300.618
  C      186.206     715.169    -302.407
  O      186.427     716.516    -302.052
  O      185.508     718.468    -300.521
  O      184.617     716.110    -300.394
  H      183.815     716.649    -300.609
  H      186.643     714.990    -303.401
  H      185.146     714.941    -302.433
  H      186.712     714.502    -301.698
  H      190.450     711.296    -303.205
  H      190.848     710.439    -301.735
  H      191.632     711.957    -302.101

 3  4  5  6  7  8  9  10  11  12  13  23  28  29  30  31  32 0
 6-311+G(2d,p)
 ****
 33  34 0
 6-311+G(2d,p)
 ****
 1  2  14  15  16  17  18  19  20  21  22  24  25  26  27 0
 3-21G
 ****
 35  36  37  38  39  40  41  42  43  44  45 0
 3-21G
 ****


