%nproc=1
%NoSave
%Mem=1900MB
#P OB98/GEN NMR

erre ene a

0 1
  C      233.445     -23.638      43.461
  O      233.835     -24.993      43.527
  H      233.922     -23.149      42.609
  H      232.360     -23.588      43.332
  H      233.714     -23.121      44.386
  P      235.405     -25.288      43.677
  C      235.666     -26.176      46.098
  O      235.557     -26.502      44.719
  C      236.397     -27.293      46.839
  O      236.982     -26.736      48.043
  C      235.507     -28.480      47.247
  O      236.014     -29.695      46.686
  C      235.645     -28.555      48.761
  O      235.737     -29.890      49.251
  C      236.918     -27.764      49.039
  N      237.009     -28.885      54.008
  C      237.415     -29.585      52.927
  N      237.463     -29.188      51.639
  C      237.057     -27.913      51.520
  C      236.637     -27.066      52.532
  C      236.602     -27.606      53.828
  N      236.136     -26.911      54.922
  N      236.288     -25.829      52.022
  C      236.454     -25.942      50.720
  N      236.898     -27.190      50.369
  O      235.939     -24.020      44.498
  O      236.142     -25.463      42.391
  H      234.830     -30.252      49.252
  H      236.738     -23.664      44.067
  H      237.739     -30.604      53.120
  H      236.226     -25.178      49.988
  H      237.818     -28.384      48.946
  H      234.771     -28.077      49.221
  H      234.460     -28.344      46.954
  H      237.225     -27.640      46.209
  H      234.665     -26.060      46.528
  H      236.038     -27.414      55.789
  H      235.731     -25.998      54.776
  H      236.201     -25.227      46.199
  P      235.073     -30.442      45.615
  C      236.733     -30.075      43.644
  O      236.027     -31.005      44.453
  O      234.306     -29.229      44.906
  O      234.131     -31.426      46.219
  H      233.445     -29.533      44.563
  H      237.320     -30.604      42.922
  H      237.375     -29.482      44.261
  H      236.035     -29.439      43.140

 6  7  8  9  10  11  12  13  14  15  25  28  32  33  34  35 0
 6-311+G(2d,p)
 ****
 36  39  40 0
 6-311+G(2d,p)
 ****
 1  2  3  4  5  16  17  18  19  20  21  22  23  24 0
 3-21G
 ****
 26  27  29  30  31  37  38  41  42  43  44  45  46  47  48 0
 3-21G
 ****


