%nproc=1
%NoSave
%Mem=1900MB
#P OB98/GEN NMR

erre ene a

0 1
  C      164.375     -36.117     116.479
  O      163.622     -36.588     117.582
  H      164.883     -35.194     116.771
  H      163.715     -35.906     115.632
  H      165.126     -36.860     116.195
  P      162.765     -37.925     117.351
  C      160.878     -38.547     115.691
  O      161.661     -37.508     116.263
  C      159.538     -38.000     115.202
  O      158.688     -37.693     116.323
  C      159.643     -36.722     114.381
  O      159.945     -37.025     113.027
  C      158.232     -36.168     114.526
  O      157.355     -36.835     113.597
  C      157.861     -36.555     115.967
  N      155.661     -32.653     118.479
  C      155.249     -33.383     117.417
  N      155.907     -34.367     116.767
  C      157.110     -34.583     117.325
  C      157.666     -33.916     118.407
  C      156.883     -32.910     119.000
  N      157.306     -32.167     120.080
  N      158.922     -34.404     118.696
  C      159.099     -35.392     117.841
  N      158.048     -35.517     116.965
  O      162.257     -38.589     118.585
  O      163.792     -38.798     116.483
  H      156.458     -36.482     113.751
  H      164.248     -38.238     115.829
  H      154.259     -33.143     117.037
  H      159.955     -36.056     117.825
  H      156.814     -36.876     116.046
  H      158.175     -35.100     114.306
  H      160.354     -36.012     114.820
  H      159.042     -38.794     114.627
  H      160.706     -39.343     116.428
  H      156.767     -31.345     120.315
  H      158.265     -32.274     120.380
  H      161.444     -38.969     114.853
  P      161.031     -36.169     112.210
  C      161.389     -33.648     111.859
  O      160.463     -34.669     112.210
  O      161.384     -36.731     110.879
  O      162.285     -36.078     113.197
  H      163.084     -35.810     112.703
  H      160.901     -32.697     111.893
  H      161.757     -33.825     110.870
  H      162.206     -33.655     112.550

 6  7  8  9  10  11  12  13  14  15  25  28  32  33  34  35 0
 6-311+G(2d,p)
 ****
 36  39  40 0
 6-311+G(2d,p)
 ****
 1  2  3  4  5  16  17  18  19  20  21  22  23  24 0
 3-21G
 ****
 26  27  29  30  31  37  38  41  42  43  44  45  46  47 0
 3-21G
 ****
 48 0
 3-21G
 ****


