%nproc=1
%NoSave
%Mem=1900MB
#P OB98/GEN NMR

erre ene a

0 1
  C     -119.327    -466.242    -324.105
  O     -118.381    -465.460    -323.394
  P     -117.441    -466.234    -322.346
  C     -118.612    -464.954    -320.397
  O     -118.210    -466.200    -320.941
  C     -119.977    -465.100    -319.721
  O     -120.910    -465.742    -320.618
  C     -119.961    -465.941    -318.451
  O     -119.531    -465.164    -317.347
  C     -121.418    -466.385    -318.359
  O     -122.237    -465.343    -317.791
  C     -121.770    -466.621    -319.837
  N     -124.020    -471.137    -320.175
  C     -124.418    -469.989    -319.508
  N     -125.614    -470.046    -318.884
  N     -123.714    -468.891    -319.469
  C     -122.536    -468.984    -320.126
  C     -122.020    -470.065    -320.804
  C     -122.835    -471.256    -320.891
  O     -122.568    -472.262    -321.544
  N     -120.785    -469.788    -321.331
  C     -120.570    -468.531    -320.995
  N     -121.608    -467.991    -320.281
  O     -116.217    -465.233    -322.148
  O     -117.005    -467.605    -322.772
  H     -123.160    -465.652    -317.746
  H     -115.455    -465.500    -322.698
  H     -124.607    -471.948    -320.186
  H     -119.688    -467.965    -321.256
  H     -122.807    -466.329    -320.063
  H     -121.547    -467.263    -317.724
  H     -126.202    -470.868    -318.851
  H     -119.319    -466.819    -318.581
  H     -125.923    -469.219    -318.390
  H     -120.360    -464.092    -319.511
  H     -118.685    -464.216    -321.196
  H     -117.861    -464.619    -319.674
  P     -118.232    -465.665    -316.551
  C     -119.401    -465.506    -314.238
  O     -118.743    -466.329    -315.185
  O     -117.539    -464.301    -316.081
  O     -117.295    -466.505    -317.359
  H     -116.567    -464.401    -316.111
  H     -120.107    -466.116    -313.677
  H     -119.941    -464.686    -314.713
  H     -118.661    -465.093    -313.543
  H     -119.886    -465.612    -324.765
  H     -119.993    -466.713    -323.412
  H     -118.816    -466.991    -324.673

 3  4  5  6  7  8  9  10  11  12  23  26  30  31 0
 6-311+G(2d,p)
 ****
 33  35  36  37  38 0
 6-311+G(2d,p)
 ****
 1  2  13  14  15  16  17  18  19  20  21  22  24  25 0
 3-21G
 ****
 27  28  29  32  34  39  40  41  42  43  44  45  46  47  48  49 0
 3-21G
 ****


