%nproc=1
%NoSave
%Mem=1900MB
#P OB98/GEN NMR

erre ene a

0 1
  C       15.405      40.277     132.026
  O       16.113      40.000     130.833
  H       15.488      41.346     132.238
  H       15.833      39.719     132.864
  H       14.348      40.025     131.909
  P       16.181      38.483     130.322
  C       18.738      38.471     130.691
  O       17.495      37.846     130.987
  C       19.825      37.963     131.635
  O       19.651      38.522     132.951
  C       19.842      36.443     131.811
  O       20.520      35.822     130.733
  C       20.602      36.326     133.122
  O       22.010      36.529     132.885
  C       20.032      37.511     133.925
  N       18.403      35.429     138.259
  C       19.668      35.446     137.706
  N       20.628      34.788     138.389
  N       19.961      36.042     136.579
  C       18.888      36.596     135.971
  C       17.584      36.630     136.410
  C       17.285      36.025     137.691
  O       16.180      36.010     138.230
  N       16.753      37.201     135.480
  C       17.563      37.560     134.501
  N       18.873      37.207     134.746
  O       16.095      38.283     128.838
  O       14.987      37.750     131.097
  H       22.241      36.025     132.082
  H       14.166      37.762     130.571
  H       18.234      34.947     139.127
  H       17.260      38.080     133.600
  H       20.782      37.959     134.588
  H       20.492      35.347     133.591
  H       20.437      34.189     139.177
  H       18.832      36.044     131.951
  H       21.551      34.742     137.969
  H       20.792      38.323     131.257
  H       18.601      39.551     130.813
  H       19.029      38.270     129.655
  P       20.125      34.346     130.231
  C       21.693      33.204     131.944
  O       20.360      33.390     131.498
  O       20.808      33.906     128.984
  O       18.531      34.377     130.130
  H       18.204      34.733     129.266
  H       21.698      32.548     132.789
  H       22.111      34.149     132.223
  H       22.276      32.775     131.156

 6  7  8  9  10  11  12  13  14  15  26  29  33  34 0
 6-311+G(2d,p)
 ****
 36  38  39  40  41 0
 6-311+G(2d,p)
 ****
 1  2  3  4  5  16  17  18  19  20  21  22  23  24  25 0
 3-21G
 ****
 27  28  30  31  32  35  37  42  43  44  45  46  47 0
 3-21G
 ****
 48  49 0
 3-21G
 ****


