%nproc=1
%NoSave
%Mem=1900MB
#P OB98/GEN NMR

erre ene a

0 1
  C     -470.084      55.329     274.429
  O     -471.389      54.949     274.828
  P     -471.741      53.386     274.884
  C     -472.848      51.643     273.309
  O     -472.519      53.008     273.528
  C     -473.946      51.516     272.248
  O     -475.209      51.959     272.804
  C     -473.683      52.343     270.990
  O     -474.207      51.652     269.844
  C     -474.531      53.582     271.197
  O     -474.848      54.216     269.961
  C     -475.731      52.989     271.932
  N     -478.161      57.413     271.683
  C     -477.776      56.571     270.661
  N     -477.982      57.011     269.398
  N     -477.227      55.394     270.858
  C     -477.071      55.089     272.172
  C     -477.433      55.838     273.267
  C     -478.025      57.137     273.035
  O     -478.366      57.947     273.896
  N     -477.151      55.180     274.436
  C     -476.573      54.055     274.052
  N     -476.473      53.973     272.687
  O     -472.883      53.316     276.004
  O     -470.594      52.502     275.233
  H     -475.539      54.881     270.149
  H     -472.514      52.945     276.828
  H     -478.565      58.315     271.476
  H     -476.199      53.288     274.715
  H     -476.427      52.503     271.233
  H     -473.996      54.304     271.823
  H     -478.334      57.928     269.182
  H     -472.628      52.582     270.814
  H     -477.667      56.428     268.634
  H     -474.064      50.453     271.993
  H     -473.204      51.207     274.243
  H     -471.952      51.096     272.992
  P     -473.284      51.663     268.531
  C     -473.192      53.669     266.866
  O     -473.019      53.204     268.193
  O     -474.283      51.184     267.378
  O     -472.068      50.798     268.628
  H     -473.783      50.769     266.644
  H     -474.007      54.402     266.853
  H     -473.437      52.856     266.175
  H     -472.271      54.146     266.535
  H     -470.004      56.396     274.441
  H     -469.894      54.968     273.440
  H     -469.368      54.910     275.105

 3  4  5  6  7  8  9  10  11  12  23  26  30  31 0
 6-311+G(2d,p)
 ****
 33  35  36  37  38 0
 6-311+G(2d,p)
 ****
 1  2  13  14  15  16  17  18  19  20  21  22  24  25 0
 3-21G
 ****
 27  28  29  32  34  39  40  41  42  43  44  45  46  47  48  49 0
 3-21G
 ****


