%nproc=1
%NoSave
%Mem=1900MB
#P OB98/GEN NMR

erre ene a

0 1
  C     -270.456      65.171     183.659
  O     -269.319      65.259     184.493
  H     -270.189      64.714     182.703
  H     -271.207      64.542     184.149
  H     -270.880      66.165     183.491
  P     -268.079      66.114     183.938
  C     -266.382      64.181     184.342
  O     -267.027      65.024     183.397
  C     -265.059      63.691     183.762
  O     -264.425      62.770     184.678
  C     -265.206      62.934     182.446
  O     -265.312      63.800     181.326
  C     -263.899      62.160     182.418
  O     -262.824      63.034     182.038
  C     -263.755      61.745     183.891
  N     -263.037      56.673     183.828
  C     -262.221      57.704     183.517
  N     -262.482      59.025     183.580
  C     -263.728      59.248     184.029
  C     -264.669      58.295     184.393
  C     -264.283      56.947     184.275
  N     -265.123      55.892     184.559
  N     -265.846      58.903     184.785
  C     -265.609      60.198     184.677
  N     -264.351      60.451     184.192
  O     -267.371      66.668     185.262
  O     -268.413      67.188     182.958
  H     -261.997      62.513     182.096
  H     -266.741      67.380     185.040
  H     -261.228      57.428     183.169
  H     -266.312      60.982     184.923
  H     -262.710      61.703     184.219
  H     -263.914      61.335     181.701
  H     -266.041      62.225     182.480
  H     -264.395      64.559     183.646
  H     -267.032      63.322     184.553
  H     -264.810      54.968     184.303
  H     -266.097      56.082     184.750
  H     -266.207      64.736     185.268
  P     -266.652      63.708     180.442
  C     -265.394      62.207     178.731
  O     -266.529      62.361     179.577
  O     -266.439      64.864     179.353
  O     -267.920      63.876     181.214
  H     -267.299      65.255     179.095
  H     -265.452      61.267     178.223
  H     -264.502      62.239     179.321
  H     -265.375      63.000     178.012

 6  7  8  9  10  11  12  13  14  15  25  28  32  33  34  35 0
 6-311+G(2d,p)
 ****
 36  39  40 0
 6-311+G(2d,p)
 ****
 1  2  3  4  5  16  17  18  19  20  21  22  23  24 0
 3-21G
 ****
 26  27  29  30  31  37  38  41  42  43  44  45  46  47 0
 3-21G
 ****
 48 0
 3-21G
 ****


