%nproc=1
%NoSave
%Mem=1900MB
#P OB98/GEN NMR

erre ene a

0 1
  C     -620.707      97.009    -139.159
  O     -619.417      96.967    -139.743
  H     -620.687      97.713    -138.321
  H     -620.983      96.019    -138.782
  H     -621.439      97.352    -139.893
  P     -619.241      96.002    -141.013
  C     -620.656      97.763    -142.277
  O     -620.467      96.385    -141.972
  C     -621.760      97.931    -143.318
  O     -622.140      99.313    -143.439
  C     -621.375      97.480    -144.722
  O     -621.487      96.078    -144.855
  C     -622.421      98.211    -145.550
  O     -623.669      97.488    -145.504
  C     -622.571      99.549    -144.806
  N     -621.830     102.593    -148.872
  C     -622.570     101.482    -148.712
  N     -622.689     100.695    -147.613
  C     -621.930     101.165    -146.613
  C     -621.120     102.293    -146.633
  C     -621.093     103.031    -147.825
  N     -620.331     104.173    -147.985
  N     -620.488     102.465    -145.416
  C     -620.952     101.490    -144.659
  N     -621.802     100.655    -145.348
  O     -619.066      94.555    -140.708
  O     -618.002      96.695    -141.751
  H     -623.522      96.624    -145.940
  H     -618.064      97.665    -141.694
  H     -623.157     101.174    -149.573
  H     -620.723     101.356    -143.610
  H     -623.615      99.882    -144.772
  H     -622.137      98.289    -146.604
  H     -620.381      97.850    -145.001
  H     -622.643      97.378    -142.964
  H     -619.722      98.202    -142.649
  H     -620.238     104.542    -148.921
  H     -619.699     104.425    -147.248
  H     -620.935      98.269    -141.347
  P     -621.095      95.347    -146.231
  C     -618.796      94.838    -145.197
  O     -619.491      95.366    -146.321
  O     -621.789      95.879    -147.437
  O     -621.426      93.803    -145.979
  H     -621.797      93.405    -146.791
  H     -617.742      94.902    -145.367
  H     -619.073      93.814    -145.055
  H     -619.051      95.401    -144.323

 6  7  8  9  10  11  12  13  14  15  25  28  32  33  34  35 0
 6-311+G(2d,p)
 ****
 36  39  40 0
 6-311+G(2d,p)
 ****
 1  2  3  4  5  16  17  18  19  20  21  22  23  24 0
 3-21G
 ****
 26  27  29  30  31  37  38  41  42  43  44  45  46  47 0
 3-21G
 ****
 48 0
 3-21G
 ****


