%nproc=1
%NoSave
%Mem=1900MB
#P OB98/GEN NMR

erre ene a

0 1
  C     -109.565     -31.289    -137.305
  O     -108.967     -30.312    -136.471
  P     -109.782     -28.949    -136.223
  C     -108.204     -28.128    -134.331
  O     -108.728     -27.893    -135.633
  C     -107.580     -26.860    -133.744
  O     -106.264     -26.672    -134.319
  C     -108.393     -25.590    -133.996
  O     -108.284     -24.761    -132.838
  C     -107.662     -24.926    -135.148
  O     -107.897     -23.517    -135.179
  C     -106.210     -25.334    -134.856
  N     -105.369     -25.269    -136.047
  C     -104.161     -24.574    -135.931
  O     -103.885     -23.987    -134.885
  N     -103.321     -24.519    -137.015
  C     -103.704     -25.022    -138.149
  N     -102.837     -24.944    -139.194
  C     -105.026     -25.654    -138.347
  C     -105.786     -25.761    -137.259
  O     -110.698     -29.304    -134.963
  O     -110.583     -28.482    -137.394
  H     -107.549     -23.134    -134.343
  H     -111.546     -28.823    -135.001
  H     -105.309     -26.023    -139.322
  H     -106.762     -26.231    -137.307
  H     -105.773     -24.685    -134.086
  H     -107.998     -25.353    -136.100
  H     -109.448     -25.795    -134.206
  H     -107.444     -27.015    -132.666
  H     -101.944     -24.493    -139.038
  H     -107.423     -28.892    -134.395
  H     -103.049     -25.308    -140.114
  H     -108.999     -28.505    -133.680
  P     -109.604     -23.994    -132.342
  C     -108.498     -24.017    -130.025
  O     -109.165     -23.240    -130.999
  O     -110.476     -25.210    -131.755
  O     -110.383     -23.207    -133.341
  H     -111.348     -24.881    -131.472
  H     -108.139     -23.358    -129.232
  H     -107.642     -24.537    -130.469
  H     -109.191     -24.746    -129.588
  H     -108.917     -32.137    -137.381
  H     -109.728     -30.876    -138.278
  H     -110.501     -31.592    -136.885

 3  4  5  6  7  8  9  10  11  12  13  21  23  27  28  29  30  32 0
 6-311+G(2d,p)
 ****
 34  35 0
 6-311+G(2d,p)
 ****
 1  2  14  15  16  17  18  19  20  22  24  25  26 0
 3-21G
 ****
 31  33  36  37  38  39  40  41  42  43  44  45  46 0
 3-21G
 ****


