%nproc=1
%NoSave
%Mem=1900MB
#P OB98/GEN NMR

erre ene a

0 1
  C        5.779     255.883       4.200
  O        4.400     255.859       4.516
  H        6.080     254.889       3.850
  H        6.361     256.127       5.095
  H        5.990     256.610       3.409
  P        3.643     257.242       4.796
  C        2.460     258.050       2.651
  O        2.359     257.266       3.832
  C        1.191     257.911       1.800
  O        1.269     256.655       1.050
  C       -0.118     257.871       2.620
  O       -1.147     258.473       1.815
  C       -0.336     256.373       2.752
  O       -1.633     256.069       3.188
  C        0.057     255.929       1.339
  N        0.260     254.490       1.217
  C       -0.829     253.720       0.819
  O       -1.940     254.191       0.546
  N       -0.613     252.368       0.747
  C        0.556     251.729       1.038
  O        0.701     250.512       0.937
  C        1.663     252.592       1.483
  C        1.470     253.911       1.547
  O        4.493     258.467       4.744
  O        2.998     257.032       6.247
  H        3.569     257.441       6.923
  H       -2.287     256.264       2.479
  H       -1.395     251.799       0.462
  H        2.602     252.108       1.739
  H        2.261     254.577       1.874
  H       -0.694     256.249       0.607
  H        0.354     255.959       3.493
  H       -0.040     258.400       3.574
  H        1.168     258.717       1.059
  H        3.329     257.705       2.081
  H        2.606     259.103       2.926
  P       -1.761     259.924       2.120
  C       -0.423     261.716       0.836
  O       -1.562     260.869       0.835
  O       -1.261     260.536       3.391
  O       -3.351     259.707       2.192
  H       -3.728     260.302       2.872
  H       -0.404     262.290      -0.067
  H        0.464     261.121       0.899
  H       -0.470     262.376       1.677

 6  7  8  9  10  11  12  13  14  15  16  27  31  32  33  34  35 0
 6-311+G(2d,p)
 ****
 36  37 0
 6-311+G(2d,p)
 ****
 1  2  3  4  5  17  18  19  20  21  22  23  24  25 0
 3-21G
 ****
 26  28  29  30  38  39  40  41  42  43  44  45 0
 3-21G
 ****


