%nproc=1
%NoSave
%Mem=1900MB
#P OB98/GEN NMR

erre ene a

0 1
  C     1407.977    -418.128    -109.960
  O     1407.953    -418.411    -111.385
  P     1409.063    -417.655    -112.283
  C     1410.548    -419.754    -112.837
  O     1410.415    -418.496    -112.133
  C     1411.783    -419.712    -113.740
  O     1412.923    -419.377    -112.980
  C     1412.066    -421.023    -114.427
  O     1411.187    -421.241    -115.539
  C     1413.535    -420.822    -114.827
  O     1413.640    -420.187    -116.111
  C     1414.079    -419.919    -113.683
  N     1414.962    -420.622    -112.785
  C     1416.287    -420.797    -113.248
  O     1416.604    -420.339    -114.328
  N     1417.175    -421.462    -112.430
  C     1416.800    -421.974    -111.299
  N     1417.729    -422.613    -110.555
  C     1415.403    -421.837    -110.802
  C     1414.550    -421.171    -111.585
  O     1409.367    -416.332    -111.459
  O     1408.625    -417.389    -113.686
  H     1413.219    -419.301    -116.022
  H     1409.644    -415.605    -112.073
  H     1415.133    -422.255    -109.845
  H     1413.506    -421.027    -111.288
  H     1414.615    -419.085    -114.112
  H     1414.056    -421.793    -114.915
  H     1411.975    -421.848    -113.705
  H     1411.614    -418.898    -114.493
  H     1418.642    -422.693    -110.936
  H     1409.628    -419.889    -113.438
  H     1417.509    -423.002    -109.652
  H     1410.610    -420.569    -112.131
  P     1410.732    -422.722    -115.822
  C     1408.279    -422.353    -115.173
  O     1409.479    -422.984    -114.831
  O     1411.878    -423.597    -115.135
  O     1410.508    -423.114    -117.272
  H     1411.756    -424.544    -115.355
  H     1407.462    -422.713    -114.501
  H     1407.994    -422.554    -116.185
  H     1408.355    -421.261    -115.018
  H     1407.202    -418.682    -109.473
  H     1407.821    -417.081    -109.802
  H     1408.926    -418.412    -109.556

 3  4  5  6  7  8  9  10  11  12  13  21  23  27  28  29  30  32 0
 6-311+G(2d,p)
 ****
 34  35 0
 6-311+G(2d,p)
 ****
 1  2  14  15  16  17  18  19  20  22  24  25  26 0
 3-21G
 ****
 31  33  36  37  38  39  40  41  42  43  44  45  46 0
 3-21G
 ****


