%nproc=1
%NoSave
%Mem=1900MB
#P OB98/GEN NMR

erre ene a

0 1
  C      434.022    -154.141    -419.509
  O      434.446    -153.441    -420.685
  P      433.359    -152.563    -421.473
  C      433.483    -150.326    -420.152
  O      433.768    -151.015    -421.360
  C      433.967    -148.877    -420.233
  O      433.591    -148.117    -419.070
  C      435.483    -148.742    -420.325
  O      435.945    -148.937    -421.657
  C      435.677    -147.296    -419.904
  O      435.394    -146.419    -421.014
  C      434.616    -147.129    -418.815
  N      435.727    -144.831    -414.371
  C      435.264    -144.347    -415.544
  N      435.009    -145.017    -416.685
  C      435.270    -146.327    -416.538
  C      435.751    -146.963    -415.403
  C      435.983    -146.155    -414.277
  N      436.454    -146.652    -413.085
  N      435.907    -148.317    -415.629
  C      435.512    -148.495    -416.873
  N      435.127    -147.324    -417.467
  O      432.064    -152.672    -420.539
  O      433.076    -153.049    -422.856
  H      436.156    -146.468    -421.618
  H      431.259    -152.674    -421.087
  H      435.067    -143.280    -415.572
  H      435.487    -149.448    -417.383
  H      434.138    -146.141    -418.840
  H      436.706    -147.084    -419.590
  H      435.979    -149.413    -419.614
  H      433.506    -148.412    -421.118
  H      433.959    -150.834    -419.305
  H      436.569    -146.019    -412.311
  H      436.625    -147.648    -413.001
  H      432.403    -150.364    -419.962
  P      437.186    -149.933    -421.867
  C      436.005    -152.245    -421.879
  O      436.594    -151.205    -422.636
  O      437.471    -150.467    -420.384
  O      438.389    -149.294    -422.474
  H      438.419    -150.672    -420.280
  H      435.398    -152.863    -422.547
  H      435.356    -151.842    -421.094
  H      436.784    -152.866    -421.432
  H      434.850    -154.678    -419.096
  H      433.243    -154.828    -419.764
  H      433.657    -153.439    -418.788

 3  4  5  6  7  8  9  10  11  12  22  25  29  30  31  32 0
 6-311+G(2d,p)
 ****
 33  36  37 0
 6-311+G(2d,p)
 ****
 1  2  13  14  15  16  17  18  19  20  21  23  24  26 0
 3-21G
 ****
 27  28  34  35  38  39  40  41  42  43  44  45  46  47  48 0
 3-21G
 ****


