%nproc=1
%NoSave
%Mem=1900MB
#P OB98/GEN NMR

erre ene a

0 1
  C       44.012     -32.818     -27.478
  O       45.417     -32.924     -27.337
  H       43.561     -32.771     -26.483
  H       43.626     -33.698     -28.000
  H       43.750     -31.912     -28.031
  P       46.281     -32.771     -28.677
  C       46.861     -35.330     -28.696
  O       46.317     -34.214     -29.389
  C       46.796     -36.575     -29.575
  O       45.428     -36.927     -29.863
  C       47.420     -36.403     -30.950
  O       48.830     -36.359     -30.905
  C       46.874     -37.633     -31.664
  O       47.673     -38.794     -31.405
  C       45.469     -37.782     -31.031
  N       44.415     -37.474     -31.981
  C       44.230     -38.419     -32.998
  O       44.924     -39.437     -33.031
  N       43.294     -38.167     -33.967
  C       42.622     -37.058     -33.941
  N       41.731     -36.855     -34.950
  C       42.787     -36.035     -32.888
  C       43.694     -36.304     -31.948
  O       47.768     -32.606     -28.113
  O       45.844     -31.668     -29.581
  H       47.220     -39.543     -31.847
  H       48.012     -33.273     -27.450
  H       42.192     -35.133     -32.904
  H       43.880     -35.609     -31.137
  H       45.317     -38.809     -30.672
  H       46.856     -37.494     -32.748
  H       47.009     -35.512     -31.443
  H       47.261     -37.405     -29.026
  H       41.690     -37.555     -35.680
  H       46.324     -35.498     -27.756
  H       41.212     -35.998     -35.076
  H       47.900     -35.092     -28.446
  P       49.666     -35.438     -31.913
  C       49.658     -37.469     -33.499
  O       49.470     -36.063     -33.382
  O       51.089     -35.201     -31.532
  O       48.784     -34.102     -32.001
  H       47.877     -34.232     -32.327
  H       49.502     -37.766     -34.515
  H       48.959     -37.976     -32.868
  H       50.655     -37.722     -33.202

 6  7  8  9  10  11  12  13  14  15  16  26  30  31  32  33  35 0
 6-311+G(2d,p)
 ****
 37  38 0
 6-311+G(2d,p)
 ****
 1  2  3  4  5  17  18  19  20  21  22  23  24  25 0
 3-21G
 ****
 27  28  29  34  36  39  40  41  42  43  44  45  46 0
 3-21G
 ****


