%nproc=1
%NoSave
%Mem=1900MB
#P OB98/GEN NMR

erre ene a

0 1
  C       70.874     -55.935     115.968
  O       72.072     -55.570     116.625
  H       71.052     -56.802     115.328
  H       70.129     -56.200     116.722
  H       70.493     -55.101     115.372
  P       73.247     -54.976     115.708
  C       72.598     -52.461     115.632
  O       73.448     -53.455     116.185
  C       72.993     -51.075     116.146
  O       72.804     -51.040     117.586
  C       74.453     -50.709     115.859
  O       74.525     -49.323     115.523
  C       75.147     -50.957     117.188
  O       76.333     -50.184     117.329
  C       74.043     -50.599     118.178
  N       74.683     -49.757     123.173
  C       74.403     -48.927     122.146
  N       74.242     -49.233     120.841
  C       74.349     -50.561     120.651
  C       74.632     -51.530     121.598
  C       74.813     -51.081     122.917
  N       75.135     -51.915     123.964
  N       74.698     -52.779     121.008
  C       74.457     -52.563     119.729
  N       74.244     -51.239     119.465
  O       72.526     -54.831     114.282
  O       74.487     -55.800     115.627
  H       76.959     -50.450     116.623
  H       72.500     -55.702     113.842
  H       74.302     -47.876     122.404
  H       74.435     -53.322     118.959
  H       73.975     -49.517     118.360
  H       75.417     -52.016     117.272
  H       74.887     -51.302     115.052
  H       72.307     -50.333     115.719
  H       71.563     -52.676     115.920
  H       75.301     -51.500     124.866
  H       75.296     -52.896     123.781
  H       72.677     -52.484     114.539
  P       74.701     -48.963     113.968
  C       72.235     -49.060     113.176
  O       73.362     -48.242     113.455
  O       74.663     -50.394     113.252
  O       75.971     -48.234     113.664
  H       75.419     -50.481     112.641
  H       71.422     -48.447     112.846
  H       71.948     -49.586     114.062
  H       72.486     -49.763     112.409

 6  7  8  9  10  11  12  13  14  15  25  28  32  33  34  35 0
 6-311+G(2d,p)
 ****
 36  39  40 0
 6-311+G(2d,p)
 ****
 1  2  3  4  5  16  17  18  19  20  21  22  23  24 0
 3-21G
 ****
 26  27  29  30  31  37  38  41  42  43  44  45  46  47 0
 3-21G
 ****
 48 0
 3-21G
 ****


