%nproc=1
%NoSave
%Mem=1900MB
#P OB98/GEN NMR

erre ene a

0 1
  C     -224.123    -244.601      -2.859
  O     -225.427    -244.132      -3.220
  P     -226.644    -244.549      -2.258
  C     -228.402    -246.450      -2.194
  O     -227.137    -246.022      -2.677
  C     -228.371    -247.930      -1.782
  O     -228.038    -248.775      -2.920
  C     -227.347    -248.241      -0.685
  O     -227.887    -249.297       0.124
  C     -226.161    -248.781      -1.461
  O     -225.287    -249.536      -0.624
  C     -226.884    -249.568      -2.551
  N     -224.451    -253.181      -5.214
  C     -225.222    -253.239      -4.106
  N     -225.817    -252.224      -3.444
  C     -225.585    -251.053      -4.070
  C     -224.815    -250.838      -5.198
  C     -224.226    -251.972      -5.782
  N     -223.419    -251.912      -6.898
  N     -224.776    -249.493      -5.509
  C     -225.505    -248.910      -4.581
  N     -226.043    -249.814      -3.705
  O     -227.837    -243.598      -2.744
  O     -226.354    -244.362      -0.804
  H     -225.003    -248.960       0.116
  H     -228.004    -242.908      -2.076
  H     -225.373    -254.233      -3.690
  H     -225.673    -247.847      -4.491
  H     -227.240    -250.545      -2.200
  H     -225.592    -247.947      -1.891
  H     -227.085    -247.386      -0.052
  H     -229.374    -248.215      -1.445
  H     -229.167    -246.312      -2.963
  H     -223.010    -252.773      -7.235
  H     -223.205    -251.013      -7.300
  H     -228.703    -245.811      -1.355
  P     -228.474    -248.872       1.554
  C     -227.445    -247.983       3.764
  O     -227.226    -248.358       2.420
  O     -228.857    -250.269       2.236
  O     -229.643    -247.943       1.485
  H     -229.562    -250.139       2.897
  H     -226.604    -248.343       4.368
  H     -228.370    -248.404       4.167
  H     -227.485    -246.897       3.832
  H     -223.408    -244.256      -3.577
  H     -224.121    -245.671      -2.840
  H     -223.865    -244.227      -1.890

 3  4  5  6  7  8  9  10  11  12  22  25  29  30  31  32 0
 6-311+G(2d,p)
 ****
 33  36  37 0
 6-311+G(2d,p)
 ****
 1  2  13  14  15  16  17  18  19  20  21  23  24  26 0
 3-21G
 ****
 27  28  34  35  38  39  40  41  42  43  44  45  46  47  48 0
 3-21G
 ****


