%nproc=1
%NoSave
%Mem=1900MB
#P OB98/GEN NMR

erre ene a

0 1
  C      360.778    -131.730    -295.975
  O      359.894    -132.462    -295.118
  P      359.453    -131.784    -293.730
  C      360.468    -131.349    -291.395
  O      360.680    -131.887    -292.696
  C      361.529    -131.873    -290.406
  O      361.320    -133.300    -290.213
  C      362.982    -131.730    -290.881
  O      363.680    -130.526    -290.573
  C      363.666    -132.842    -290.092
  O      363.986    -132.386    -288.762
  C      362.602    -133.937    -290.012
  N      365.459    -137.988    -291.308
  C      365.515    -137.140    -290.258
  N      364.718    -136.086    -289.989
  C      363.771    -135.951    -290.929
  C      363.584    -136.738    -292.057
  C      364.485    -137.800    -292.236
  N      364.437    -138.658    -293.320
  N      362.511    -136.287    -292.800
  C      362.071    -135.232    -292.142
  N      362.782    -134.994    -290.998
  O      358.127    -132.208    -293.191
  O      359.446    -130.220    -294.091
  H      364.394    -133.142    -288.302
  H      358.702    -129.787    -293.625
  H      366.310    -137.330    -289.534
  H      361.238    -134.611    -292.452
  H      362.572    -134.425    -289.025
  H      364.607    -133.161    -290.547
  H      363.064    -131.935    -291.961
  H      361.401    -131.374    -289.437
  H      359.473    -131.622    -291.042
  H      365.150    -139.369    -293.387
  H      363.759    -138.495    -294.042
  H      360.484    -130.254    -291.482
  P      363.968    -129.422    -291.694
  C      365.207    -129.568    -294.002
  O      365.026    -130.092    -292.698
  O      364.377    -128.079    -291.172
  O      362.612    -129.419    -292.548
  H      362.462    -130.232    -293.055
  H      366.102    -130.017    -294.440
  H      365.332    -128.484    -293.975
  H      364.338    -129.829    -294.621
  H      360.980    -132.305    -296.854
  H      361.694    -131.534    -295.459
  H      360.320    -130.804    -296.252

 3  4  5  6  7  8  9  10  11  12  22  25  29  30  31  32 0
 6-311+G(2d,p)
 ****
 33  36  37 0
 6-311+G(2d,p)
 ****
 1  2  13  14  15  16  17  18  19  20  21  23  24  26 0
 3-21G
 ****
 27  28  34  35  38  39  40  41  42  43  44  45  46  47  48 0
 3-21G
 ****


