%nproc=1
%NoSave
%Mem=1900MB
#P OB98/GEN NMR

erre ene a

0 1
  C       71.414      25.292      15.703
  O       70.554      26.369      15.380
  H       71.753      25.412      16.735
  H       72.285      25.295      15.043
  H       70.878      24.344      15.615
  P       69.925      26.363      13.904
  C       71.776      28.097      13.379
  O       71.110      26.910      12.969
  C       71.880      29.080      12.216
  O       72.690      28.531      11.160
  C       70.545      29.434      11.572
  O       69.867      30.424      12.328
  C       71.012      29.971      10.229
  O       71.469      31.330      10.380
  C       72.203      29.053       9.895
  N       72.315      27.343       5.057
  C       72.538      28.566       5.581
  N       72.450      28.958       6.870
  C       72.085      27.932       7.656
  C       71.823      26.628       7.264
  C       71.960      26.341       5.895
  N       71.740      25.088       5.365
  N       71.475      25.851       8.348
  C       71.578      26.658       9.384
  N       71.909      27.938       9.014
  O       68.604      27.035      13.761
  O       69.929      24.795      13.578
  H       72.167      31.330      11.062
  H       70.734      24.375      13.927
  H       72.830      29.335       4.871
  H       71.441      26.365      10.419
  H       73.025      29.609       9.431
  H       70.212      29.987       9.486
  H       69.930      28.543      11.407
  H       72.389      29.980      12.582
  H       72.776      27.861      13.759
  H       71.693      25.009       4.361
  H       71.357      24.377       5.971
  H       71.192      28.536      14.194
  P       68.266      30.506      12.316
  C       68.190      32.473      10.662
  O       67.849      31.110      10.888
  O       67.661      31.206      13.485
  O       67.785      28.985      12.220
  H       66.988      28.844      12.766
  H       67.866      32.765       9.685
  H       69.251      32.592      10.736
  H       67.710      33.087      11.395

 6  7  8  9  10  11  12  13  14  15  25  28  32  33  34  35 0
 6-311+G(2d,p)
 ****
 36  39  40 0
 6-311+G(2d,p)
 ****
 1  2  3  4  5  16  17  18  19  20  21  22  23  24 0
 3-21G
 ****
 26  27  29  30  31  37  38  41  42  43  44  45  46  47 0
 3-21G
 ****
 48 0
 3-21G
 ****


