%nproc=1
%NoSave
%Mem=1900MB
#P OB98/GEN NMR

erre ene a

0 1
  C     -316.007    -120.317     350.070
  O     -316.347    -119.159     349.304
  P     -317.822    -118.560     349.514
  C     -317.970    -118.260     346.944
  O     -318.212    -117.687     348.223
  C     -317.132    -117.330     346.054
  O     -317.744    -116.017     345.953
  C     -315.701    -117.126     346.562
  O     -314.857    -116.980     345.418
  C     -315.782    -115.790     347.284
  O     -314.495    -115.198     347.413
  C     -316.769    -115.040     346.374
  N     -317.399    -113.897     347.033
  C     -316.771    -112.657     346.891
  O     -315.695    -112.569     346.290
  N     -317.349    -111.551     347.461
  C     -318.431    -111.681     348.165
  N     -318.960    -110.552     348.708
  C     -319.099    -112.983     348.388
  C     -318.535    -114.031     347.797
  O     -317.617    -117.465     350.665
  O     -318.831    -119.587     349.915
  H     -314.187    -114.938     346.521
  H     -318.280    -117.591     351.368
  H     -319.991    -113.046     348.994
  H     -318.948    -115.023     347.901
  H     -316.258    -114.667     345.475
  H     -316.208    -115.926     348.286
  H     -315.340    -117.947     347.189
  H     -317.105    -117.760     345.045
  H     -318.477    -109.678     348.521
  H     -318.919    -118.464     346.448
  H     -319.793    -110.537     349.269
  H     -317.478    -119.228     347.073
  P     -314.326    -118.304     344.693
  C     -312.011    -117.823     345.703
  O     -312.747    -118.070     344.515
  O     -314.842    -118.074     343.190
  O     -314.758    -119.628     345.221
  H     -314.644    -118.857     342.649
  H     -310.948    -117.808     345.455
  H     -312.193    -118.612     346.436
  H     -312.290    -116.852     346.118
  H     -315.005    -120.615     349.840
  H     -316.680    -121.114     349.830
  H     -316.081    -120.089     351.113

 3  4  5  6  7  8  9  10  11  12  13  21  23  27  28  29  30  32 0
 6-311+G(2d,p)
 ****
 34  35 0
 6-311+G(2d,p)
 ****
 1  2  14  15  16  17  18  19  20  22  24  25  26 0
 3-21G
 ****
 31  33  36  37  38  39  40  41  42  43  44  45  46 0
 3-21G
 ****


