%nproc=1
%NoSave
%Mem=1900MB
#P OB98/GEN NMR

erre ene a

0 1
  C      509.135    -395.363     331.551
  O      508.679    -396.077     330.396
  P      509.815    -396.731     329.459
  C      510.435    -398.720     331.017
  O      510.847    -397.496     330.418
  C      511.350    -399.861     330.588
  O      512.709    -399.620     331.002
  C      510.989    -401.214     331.187
  O      509.911    -401.822     330.496
  C      512.276    -401.996     330.968
  O      512.314    -402.510     329.628
  C      513.352    -400.913     331.160
  N      517.440    -399.618     333.865
  C      517.155    -399.401     332.529
  N      518.083    -398.713     331.821
  N      516.064    -399.810     331.946
  C      515.218    -400.459     332.778
  C      515.391    -400.739     334.117
  C      516.617    -400.299     334.744
  O      516.937    -400.493     335.919
  N      514.307    -401.402     334.633
  C      513.470    -401.495     333.616
  N      513.983    -400.953     332.469
  O      510.651    -395.452     328.968
  O      509.276    -397.522     328.318
  H      511.559    -403.125     329.534
  H      511.068    -395.641     328.104
  H      518.302    -399.281     334.262
  H      512.484    -401.947     333.666
  H      514.138    -400.976     330.401
  H      512.371    -402.852     331.639
  H      518.910    -398.299     332.221
  H      510.781    -401.125     332.262
  H      517.873    -398.513     330.849
  H      511.331    -399.922     329.491
  H      509.407    -398.948     330.722
  H      510.439    -398.598     332.105
  P      508.655    -402.313     331.372
  C      507.516    -399.980     331.392
  O      508.133    -401.008     332.139
  O      509.334    -403.192     332.520
  O      507.628    -403.082     330.608
  H      508.717    -403.885     332.829
  H      506.830    -400.394     330.650
  H      508.283    -399.382     330.879
  H      506.960    -399.331     332.068
  H      508.293    -394.979     332.088
  H      509.763    -394.553     331.244
  H      509.690    -396.024     332.183

 3  4  5  6  7  8  9  10  11  12  23  26  30  31  33  0
 6-311+G(2d,p)
 ****
 35  36  37  38 0
 6-311+G(2d,p)
 ****
 1  2  13  14  15  16  17  18  19  20  21  22  24  25  27  28  29 0
 3-21G
 ****
 32  34  39  40  41  42  43  44  45  46  47  48  49 0
 3-21G
 ****


