%nproc=1
%NoSave
%Mem=1900MB
#P OB98/GEN NMR

erre ene a

0 1
  C      -90.589     207.121     -63.954
  O      -90.840     207.990     -62.868
  H      -90.596     206.091     -63.589
  H      -89.606     207.337     -64.377
  H      -91.359     207.227     -64.724
  P      -91.200     209.513     -63.227
  C      -89.760     211.622     -63.690
  O      -89.831     210.204     -63.705
  C      -88.817     212.114     -64.784
  O      -89.331     211.767     -66.087
  C      -88.605     213.626     -64.797
  O      -87.610     214.022     -63.861
  C      -88.124     213.831     -66.223
  O      -86.741     213.429     -66.332
  C      -89.014     212.853     -67.002
  N      -91.960     213.528     -71.077
  C      -90.717     212.934     -70.971
  N      -90.179     212.459     -72.115
  N      -90.057     212.818     -69.847
  C      -90.706     213.360     -68.789
  C      -91.935     213.980     -68.769
  C      -92.660     214.086     -70.014
  O      -93.769     214.594     -70.159
  N      -92.267     214.404     -67.509
  C      -91.229     214.061     -66.771
  N      -90.253     213.426     -67.501
  O      -91.471     210.159     -61.785
  O      -92.373     209.693     -64.132
  H      -86.695     212.490     -66.079
  H      -92.434     210.241     -61.653
  H      -92.419     213.599     -71.967
  H      -91.137     214.240     -65.709
  H      -88.498     212.416     -67.863
  H      -88.176     214.874     -66.540
  H      -90.623     212.534     -73.017
  H      -89.545     214.170     -64.643
  H      -89.269     212.016     -72.060
  H      -87.859     211.592     -64.662
  H      -89.388     211.950     -62.713
  H      -90.762     212.030     -63.849
  P      -87.644     215.527     -63.309
  C      -86.580     217.762     -64.084
  O      -87.010     216.460     -64.454
  O      -86.517     215.509     -62.173
  O      -88.956     215.977     -62.766
  H      -86.930     215.604     -61.292
  H      -86.183     218.264     -64.942
  H      -85.822     217.687     -63.332
  H      -87.411     218.316     -63.699

 6  7  8  9  10  11  12  13  14  15  26  29  33  34 0
 6-311+G(2d,p)
 ****
 36  38  39  40  41 0
 6-311+G(2d,p)
 ****
 1  2  3  4  5  16  17  18  19  20  21  22  23  24  25 0
 3-21G
 ****
 27  28  30  31  32  35  37  42  43  44  45  46  47 0
 3-21G
 ****
 48  49 0
 3-21G
 ****


