%nproc=1
%NoSave
%Mem=1900MB
#P OB98/GEN NMR

erre ene a

0 1
  C     -307.318     482.062     467.114
  O     -307.230     482.152     465.705
  P     -308.462     482.714     464.851
  C     -308.834     484.033     462.675
  O     -307.879     483.573     463.629
  C     -308.230     485.128     461.806
  O     -307.983     486.326     462.579
  C     -306.886     484.771     461.198
  O     -307.007     483.828     460.145
  C     -306.377     486.143     460.779
  O     -306.964     486.540     459.528
  C     -306.905     487.032     461.923
  N     -305.860     487.395     462.865
  C     -305.975     488.657     463.452
  O     -306.871     489.428     463.110
  N     -305.059     489.019     464.413
  C     -304.054     488.247     464.672
  N     -303.211     488.626     465.672
  C     -303.806     486.974     463.955
  C     -304.750     486.606     463.091
  O     -309.523     483.396     465.651
  O     -309.055     481.417     464.122
  H     -310.018     481.384     464.268
  H     -306.620     485.925     458.849
  H     -302.913     486.402     464.159
  H     -304.669     485.683     462.533
  H     -307.348     487.950     461.522
  H     -305.291     486.165     460.644
  H     -306.224     484.359     461.976
  H     -308.955     485.369     461.013
  H     -303.422     489.493     466.158
  H     -309.706     484.422     463.209
  H     -302.613     487.965     466.165
  H     -309.159     483.184     462.058
  P     -305.691     482.997     459.760
  C     -305.189     480.629     458.834
  O     -306.155     481.517     459.358
  O     -304.952     482.797     461.168
  O     -304.794     483.670     458.767
  H     -303.985     482.844     461.042
  H     -305.557     479.602     458.944
  H     -304.237     480.717     459.366
  H     -305.033     480.838     457.770
  H     -306.403     481.666     467.504
  H     -308.128     481.416     467.380
  H     -307.489     483.036     467.524

 3  4  5  6  7  8  9  10  11  12  13  24  27  28  29  30  32 0
 6-311+G(2d,p)
 ****
 34  35 0
 6-311+G(2d,p)
 ****
 1  2  14  15  16  17  18  19  20  21  22  23  25  26 0
 3-21G
 ****
 31  33  36  37  38  39  40  41  42  43  44  45  46 0
 3-21G
 ****


