%nproc=1
%NoSave
%Mem=1900MB
#P OB98/GEN NMR

erre ene a

0 1
  C      252.345     442.520    -321.736
  O      252.199     441.149    -321.407
  P      251.014     440.344    -322.148
  C      249.460     440.277    -320.077
  O      250.184     439.527    -321.023
  C      249.027     439.413    -318.875
  O      248.393     438.187    -319.328
  C      250.191     439.010    -317.967
  O      249.697     438.949    -316.630
  C      250.528     437.605    -318.435
  O      251.262     436.876    -317.455
  C      249.120     437.085    -318.732
  N      247.294     432.359    -319.420
  C      247.113     433.274    -318.421
  N      247.653     434.503    -318.309
  C      248.428     434.771    -319.383
  C      248.703     433.956    -320.455
  C      248.112     432.685    -320.454
  N      248.323     431.749    -321.437
  N      249.593     434.568    -321.324
  C      249.812     435.763    -320.781
  N      249.121     435.931    -319.625
  O      251.793     439.200    -322.954
  O      250.187     441.187    -323.054
  H      250.771     436.920    -316.609
  H      251.772     439.392    -323.902
  H      246.452     432.966    -317.619
  H      250.499     436.506    -321.184
  H      248.580     436.773    -317.815
  H      251.118     437.659    -319.354
  H      251.067     439.668    -318.019
  H      248.271     439.973    -318.286
  H      248.546     440.700    -320.546
  H      247.874     430.843    -321.329
  H      248.963     431.959    -322.183
  H      250.044     441.129    -319.755
  P      250.218     440.075    -315.601
  C      252.222     438.752    -314.585
  O      250.918     439.301    -314.399
  O      248.864     440.649    -314.977
  O      251.044     441.124    -316.256
  H      248.999     441.568    -314.666
  H      252.804     438.928    -313.674
  H      252.736     439.213    -315.434
  H      252.126     437.682    -314.757
  H      253.160     442.935    -321.181
  H      251.444     443.043    -321.492
  H      252.541     442.617    -322.783

 3  4  5  6  7  8  9  10  11  12  22  25  29  30  31  32 0
 6-311+G(2d,p)
 ****
 33  36  37 0
 6-311+G(2d,p)
 ****
 1  2  13  14  15  16  17  18  19  20  21  23  24  26 0
 3-21G
 ****
 27  28  34  35  38  39  40  41  42  43  44  45  46  47  48 0
 3-21G
 ****


