%nproc=1
%NoSave
%Mem=1900MB
#P OB98/GEN NMR

erre ene a

0 1
  C      -68.653      41.384     -43.726
  O      -69.708      42.211     -44.179
  P      -69.437      43.758     -44.493
  C      -70.075      44.529     -42.090
  O      -69.087      44.464     -43.096
  C      -69.599      45.373     -40.900
  O      -68.514      44.661     -40.256
  C      -69.038      46.742     -41.270
  O      -69.030      47.561     -40.097
  C      -67.616      46.401     -41.659
  O      -66.756      47.535     -41.613
  C      -67.263      45.259     -40.674
  N      -66.397      44.245     -41.306
  C      -65.220      43.917     -40.637
  O      -64.929      44.374     -39.532
  N      -64.350      43.112     -41.320
  C      -64.528      42.660     -42.594
  O      -63.625      42.210     -43.292
  C      -65.879      42.839     -43.149
  C      -66.733      43.635     -42.501
  O      -70.896      44.310     -44.847
  O      -68.463      44.015     -45.592
  H      -67.227      48.269     -42.075
  H      -71.026      44.323     -45.813
  H      -63.437      42.992     -40.896
  H      -66.109      42.367     -44.094
  H      -67.721      43.828     -42.913
  H      -66.742      45.641     -39.787
  H      -67.609      46.024     -42.690
  H      -69.575      47.244     -42.078
  H      -70.416      45.472     -40.175
  H      -70.329      43.515     -41.767
  H      -70.998      44.966     -42.490
  P      -69.109      49.152     -40.292
  C      -66.619      49.410     -39.711
  O      -67.628      49.633     -40.678
  O      -69.766      49.914     -39.192
  O      -69.900      49.305     -41.680
  H      -70.266      50.206     -41.752
  H      -65.663      49.278     -40.222
  H      -66.828      48.519     -39.112
  H      -66.553      50.281     -39.054
  H      -69.020      40.391     -43.570
  H      -68.267      41.770     -42.806
  H      -67.874      41.366     -44.459

 3  4  5  6  7  8  9  10  11  12  13  23  28  29  30  31  32 0
 6-311+G(2d,p)
 ****
 33  34 0
 6-311+G(2d,p)
 ****
 1  2  14  15  16  17  18  19  20  21  22  24  25  26  27 0
 3-21G
 ****
 35  36  37  38  39  40  41  42  43  44  45 0
 3-21G
 ****


