%nproc=1
%NoSave
%Mem=1900MB
#P OB98/GEN NMR

erre ene a

0 1
  C     -320.577     -38.242    -283.958
  O     -321.220     -38.442    -282.706
  P     -321.804     -37.159    -281.939
  C     -320.856     -35.581    -280.115
  O     -320.567     -36.455    -281.193
  C     -319.578     -35.155    -279.392
  O     -318.932     -36.334    -278.839
  C     -318.549     -34.447    -280.279
  O     -317.869     -33.487    -279.460
  C     -317.586     -35.560    -280.643
  O     -316.319     -35.064    -281.057
  C     -317.576     -36.347    -279.335
  N     -313.915     -39.327    -281.316
  C     -314.056     -37.984    -281.272
  N     -315.060     -37.263    -280.726
  C     -315.984     -38.074    -280.184
  C     -315.996     -39.458    -280.182
  C     -314.893     -40.098    -280.778
  N     -314.741     -41.463    -280.816
  N     -317.127     -39.937    -279.555
  C     -317.790     -38.859    -279.184
  N     -317.127     -37.710    -279.521
  O     -322.637     -37.816    -280.741
  O     -322.657     -36.259    -282.766
  H     -315.780     -35.818    -281.371
  H     -323.592     -37.669    -280.880
  H     -313.256     -37.413    -281.729
  H     -318.747     -38.854    -278.680
  H     -316.933     -35.882    -278.576
  H     -318.003     -36.157    -281.463
  H     -318.981     -33.958    -281.159
  H     -319.858     -34.516    -278.544
  H     -321.502     -36.104    -279.403
  H     -313.862     -41.839    -281.132
  H     -315.365     -42.037    -280.256
  H     -321.391     -34.702    -280.487
  P     -317.253     -32.206    -280.200
  C     -315.267     -31.988    -281.860
  O     -316.371     -32.758    -281.419
  O     -316.162     -31.665    -279.159
  O     -318.256     -31.155    -280.543
  H     -316.038     -30.707    -279.270
  H     -314.487     -32.665    -282.210
  H     -314.863     -31.361    -281.057
  H     -315.584     -31.353    -282.691
  H     -320.244     -39.183    -284.342
  H     -319.737     -37.593    -283.828
  H     -321.266     -37.799    -284.646

 3  4  5  6  7  8  9  10  11  12  22  25  29  30  31  32 0
 6-311+G(2d,p)
 ****
 33  36  37 0
 6-311+G(2d,p)
 ****
 1  2  13  14  15  16  17  18  19  20  21  23  24  26 0
 3-21G
 ****
 27  28  34  35  38  39  40  41  42  43  44  45  46  47  48 0
 3-21G
 ****


