%nproc=1
%NoSave
%Mem=1900MB
#P OB98/GEN NMR

erre ene a

0 1
  C     -553.730     809.453    -745.194
  O     -553.164     810.755    -745.360
  P     -552.535     811.449    -744.059
  C     -550.245     810.886    -745.124
  O     -551.003     810.985    -743.931
  C     -548.752     810.673    -744.829
  O     -548.236     811.756    -743.999
  C     -548.454     809.366    -744.092
  O     -547.177     808.894    -744.536
  C     -548.338     809.802    -742.645
  O     -547.628     808.840    -741.861
  C     -547.641     811.156    -742.830
  N     -545.602     812.518    -738.348
  C     -545.214     811.629    -739.290
  N     -545.830     811.303    -740.447
  C     -546.936     812.040    -740.609
  C     -547.467     812.980    -739.736
  C     -546.760     813.203    -738.546
  N     -547.158     814.084    -737.576
  N     -548.652     813.489    -740.234
  C     -548.827     812.877    -741.385
  N     -547.808     812.015    -741.674
  O     -553.260     810.682    -742.847
  O     -552.766     812.921    -743.983
  H     -546.828     808.574    -742.372
  H     -553.904     811.275    -742.426
  H     -544.287     811.099    -739.080
  H     -549.680     812.997    -742.039
  H     -546.566     811.053    -743.004
  H     -549.339     809.931    -742.210
  H     -549.205     808.579    -744.232
  H     -548.210     810.695    -745.776
  H     -550.367     811.789    -745.727
  H     -546.604     814.170    -736.744
  H     -548.042     814.575    -737.697
  H     -550.642     810.069    -745.729
  P     -547.169     807.929    -745.818
  C     -546.520     809.705    -747.597
  O     -547.526     808.860    -747.078
  O     -548.482     807.041    -745.619
  O     -545.938     807.101    -745.953
  H     -548.368     806.174    -746.080
  H     -546.585     809.690    -748.689
  H     -545.516     809.392    -747.300
  H     -546.700     810.725    -747.253
  H     -554.111     809.108    -746.132
  H     -554.526     809.498    -744.480
  H     -552.976     808.778    -744.845

 3  4  5  6  7  8  9  10  11  12  22  25  29  30  31  32 0
 6-311+G(2d,p)
 ****
 33  36  37 0
 6-311+G(2d,p)
 ****
 1  2  13  14  15  16  17  18  19  20  21  23  24  26 0
 3-21G
 ****
 27  28  34  35  38  39  40  41  42  43  44  45  46  47  48 0
 3-21G
 ****


