%nproc=1
%NoSave
%Mem=1900MB
#P OB98/GEN NMR

erre ene a

0 1
  C      478.767    -277.154    -518.722
  O      478.245    -275.995    -519.390
  P      478.724    -274.556    -518.879
  C      478.479    -273.617    -521.290
  O      478.192    -273.457    -519.912
  C      478.302    -272.291    -522.038
  O      476.913    -271.901    -522.118
  C      479.022    -271.120    -521.374
  O      480.390    -271.074    -521.730
  C      478.282    -269.940    -521.985
  O      478.796    -269.680    -523.309
  C      476.841    -270.451    -522.059
  N      473.385    -267.144    -520.409
  C      473.979    -267.266    -521.654
  N      473.591    -266.383    -522.596
  N      474.876    -268.183    -521.944
  C      475.152    -269.004    -520.907
  C      474.634    -268.980    -519.631
  C      473.656    -267.965    -519.323
  O      473.107    -267.800    -518.239
  N      475.163    -269.981    -518.861
  C      475.995    -270.614    -519.666
  N      476.034    -270.053    -520.918
  O      480.301    -274.578    -519.171
  O      478.432    -274.281    -517.439
  H      479.714    -269.366    -523.194
  H      480.765    -273.991    -518.543
  H      472.704    -266.421    -520.240
  H      476.579    -271.482    -519.392
  H      476.319    -270.109    -522.958
  H      478.418    -269.010    -521.411
  H      472.871    -265.683    -522.456
  H      478.878    -271.132    -520.279
  H      473.992    -266.478    -523.522
  H      478.688    -272.416    -523.058
  H      477.825    -274.375    -521.733
  H      479.498    -274.003    -521.406
  P      481.452    -271.771    -520.740
  C      483.051    -270.767    -522.521
  O      482.893    -271.255    -521.208
  O      481.410    -273.299    -521.206
  O      481.135    -271.620    -519.291
  H      481.592    -273.885    -520.435
  H      484.044    -270.317    -522.609
  H      482.300    -270.002    -522.748
  H      482.969    -271.587    -523.242
  H      478.360    -278.037    -519.169
  H      478.496    -277.121    -517.687
  H      479.833    -277.167    -518.811

 3  4  5  6  7  8  9  10  11  12  23  26  30  31 0
 6-311+G(2d,p)
 ****
 33  35  36  37  38 0
 6-311+G(2d,p)
 ****
 1  2  13  14  15  16  17  18  19  20  21  22  24  25 0
 3-21G
 ****
 27  28  29  32  34  39  40  41  42  43  44  45  46  47  48  49 0
 3-21G
 ****


