%nproc=1
%NoSave
%Mem=1900MB
#P OB98/GEN NMR

erre ene a

0 1
  C      -86.738      54.256     -93.111
  O      -86.672      52.841     -93.118
  P      -87.996      52.044     -93.559
  C      -90.410      51.842     -92.605
  O      -89.057      52.216     -92.371
  C      -90.946      51.043     -91.421
  O      -90.230      49.798     -91.297
  C      -90.798      51.732     -90.071
  O      -91.762      52.759     -89.911
  C      -90.970      50.545     -89.130
  O      -92.363      50.220     -88.995
  C      -90.238      49.426     -89.892
  N      -87.266      47.385     -86.257
  C      -88.609      47.432     -86.403
  N      -89.326      48.013     -87.386
  C      -88.515      48.584     -88.291
  C      -87.133      48.636     -88.264
  C      -86.498      47.997     -87.189
  N      -85.128      47.955     -87.042
  N      -86.647      49.331     -89.352
  C      -87.719      49.682     -90.031
  N      -88.871      49.242     -89.439
  O      -87.554      50.513     -93.443
  O      -88.506      52.380     -94.925
  H      -92.818      51.023     -88.672
  H      -87.992      49.971     -94.128
  H      -89.184      46.935     -85.627
  H      -87.712      50.246     -90.953
  H      -90.746      48.459     -89.809
  H      -90.576      50.730     -88.126
  H      -89.789      52.151     -89.964
  H      -92.002      50.813     -91.617
  H      -90.467      51.221     -93.505
  H      -84.763      47.608     -86.168
  H      -84.567      48.530     -87.657
  H      -91.004      52.746     -92.770
  P      -91.339      54.036     -89.036
  C      -90.408      54.146     -86.644
  O      -91.275      53.467     -87.534
  O      -92.690      54.888     -89.030
  O      -90.121      54.749     -89.513
  H      -93.464      54.343     -88.802
  H      -90.500      53.694     -85.654
  H      -90.682      55.202     -86.581
  H      -89.372      54.047     -86.983
  H      -85.795      54.655     -92.800
  H      -87.501      54.574     -92.432
  H      -86.967      54.607     -94.095

 3  4  5  6  7  8  9  10  11  12  22  25  29  30  31  32 0
 6-311+G(2d,p)
 ****
 33  36  37 0
 6-311+G(2d,p)
 ****
 1  2  13  14  15  16  17  18  19  20  21  23  24  26 0
 3-21G
 ****
 27  28  34  35  38  39  40  41  42  43  44  45  46  47  48 0
 3-21G
 ****


