%nproc=1
%NoSave
%Mem=1900MB
#P OB98/GEN NMR

erre ene a

0 1
  C      473.475    -244.356     -68.691
  O      474.215    -244.406     -69.917
  P      474.838    -243.103     -70.613
  C      475.325    -241.322     -68.810
  O      475.848    -242.390     -69.595
  C      476.296    -240.907     -67.700
  O      476.519    -241.999     -66.789
  C      477.678    -240.490     -68.183
  O      477.654    -239.193     -68.746
  C      478.486    -240.613     -66.895
  O      478.332    -239.443     -66.074
  C      477.837    -241.841     -66.224
  N      478.633    -243.050     -66.387
  C      479.877    -243.070     -65.745
  O      480.276    -242.081     -65.132
  N      480.646    -244.204     -65.835
  C      480.243    -245.199     -66.562
  N      481.042    -246.300     -66.609
  C      478.983    -245.185     -67.328
  C      478.239    -244.090     -67.192
  O      473.816    -242.181     -71.201
  O      475.802    -243.667     -71.761
  H      478.849    -239.607     -65.261
  H      475.826    -243.030     -72.500
  H      478.697    -246.023     -67.945
  H      477.289    -244.000     -67.714
  H      477.687    -241.661     -65.155
  H      479.558    -240.738     -67.081
  H      478.049    -241.217     -68.916
  H      475.823    -240.089     -67.132
  H      481.899    -246.280     -66.068
  H      474.383    -241.659     -68.360
  H      480.824    -247.126     -67.144
  H      475.114    -240.472     -69.467
  P      477.670    -239.015     -70.339
  C      476.056    -239.860     -72.149
  O      476.179    -239.271     -70.865
  O      478.736    -239.765     -71.061
  O      477.845    -237.434     -70.542
  H      478.343    -237.276     -71.365
  H      475.078    -240.341     -72.223
  H      476.835    -240.609     -72.316
  H      476.129    -239.078     -72.911
  H      473.161    -245.343     -68.423
  H      472.616    -243.731     -68.818
  H      474.095    -243.956     -67.916

 3  4  5  6  7  8  9  10  11  12  13  23  27  28  29  30  32 0
 6-311+G(2d,p)
 ****
 34  35 0
 6-311+G(2d,p)
 ****
 1  2  14  15  16  17  18  19  20  21  22  24  25  26 0
 3-21G
 ****
 31  33  36  37  38  39  40  41  42  43  44  45  46 0
 3-21G
 ****


