%nproc=1
%NoSave
%Mem=1900MB
#P OB98/GEN NMR

erre ene a

0 1
  C     -126.635     -98.063    1072.370
  O     -125.345     -97.508    1072.210
  H     -126.566     -98.912    1073.054
  H     -127.025     -98.414    1071.406
  H     -127.318     -97.320    1072.792
  P     -125.147     -96.320    1071.151
  C     -123.154     -94.830    1070.427
  O     -123.567     -96.035    1071.076
  C     -121.795     -94.360    1070.968
  O     -121.994     -93.842    1072.333
  C     -120.741     -95.473    1071.062
  O     -119.448     -94.857    1070.884
  C     -120.919     -95.950    1072.496
  O     -119.838     -96.746    1072.909
  C     -121.127     -94.603    1073.205
  N     -121.711     -94.768    1074.538
  C     -120.806     -94.926    1075.587
  O     -119.588     -94.941    1075.362
  N     -121.286     -95.099    1076.864
  C     -122.566     -95.165    1077.056
  N     -122.982     -95.350    1078.337
  C     -123.567     -95.069    1075.954
  C     -123.079     -94.865    1074.735
  O     -125.994     -95.109    1071.369
  O     -125.458     -96.996    1069.735
  H     -118.976     -96.299    1072.745
  H     -126.339     -96.721    1069.419
  H     -124.621     -95.148    1076.178
  H     -123.719     -94.776    1073.878
  H     -120.184     -94.062    1073.294
  H     -121.825     -96.576    1072.587
  H     -120.883     -96.266    1070.317
  H     -121.440     -93.521    1070.368
  H     -122.273     -95.415    1079.051
  H     -123.924     -94.080    1070.622
  H     -123.968     -95.444    1078.620
  H     -123.083     -94.986    1069.352
  P     -118.583     -95.029    1069.546
  C     -116.365     -94.152    1068.539
  O     -117.190     -94.244    1069.714
  O     -119.323     -94.696    1068.292
  O     -118.127     -96.575    1069.553
  H     -118.032     -96.872    1068.633
  H     -115.471     -93.612    1068.772
  H     -116.900     -93.640    1067.767
  H     -116.110     -95.136    1068.204

 6  7  8  9  10  11  12  13  14  15  16  26  30  31  32  33  35 0
 6-311+G(2d,p)
 ****
 37  38 0
 6-311+G(2d,p)
 ****
 1  2  3  4  5  17  18  19  20  21  22  23  24  25 0
 3-21G
 ****
 27  28  29  34  36  39  40  41  42  43  44  45  46 0
 3-21G
 ****


