%nproc=1
%NoSave
%Mem=1900MB
#P OB98/GEN NMR

erre ene a

0 1
  C      104.526      86.724     961.423
  O      104.884      86.982     962.765
  H      104.784      85.691     961.180
  H      105.072      87.395     960.752
  H      103.445      86.855     961.287
  P      104.600      88.467     963.313
  C      107.067      89.026     962.733
  O      105.703      89.411     962.624
  C      107.906      90.191     963.265
  O      107.837      91.317     962.372
  C      107.480      90.695     964.638
  O      108.031      89.897     965.681
  C      108.045      92.115     964.627
  O      109.451      92.115     964.939
  C      107.804      92.528     963.167
  N      105.594      97.075     963.153
  C      106.920      96.729     963.354
  N      107.766      97.738     963.661
  N      107.364      95.502     963.290
  C      106.399      94.597     963.013
  C      105.057      94.819     962.778
  C      104.576      96.182     962.827
  O      103.440      96.564     962.589
  N      104.393      93.641     962.523
  C      105.326      92.710     962.637
  N      106.556      93.237     962.957
  O      105.075      88.401     964.838
  O      103.189      88.934     963.190
  H      109.919      91.546     964.311
  H      104.538      89.022     965.369
  H      105.321      98.039     963.201
  H      105.162      91.645     962.506
  H      108.605      93.186     962.793
  H      107.554      92.748     965.362
  H      107.437      98.613     964.041
  H      106.379      90.739     964.711
  H      108.731      97.490     963.828
  H      108.955      89.849     963.290
  H      107.440      88.740     961.744
  H      107.144      88.168     963.410
  P      107.254      89.860     967.079
  C      108.436      91.972     968.036
  O      107.224      91.376     967.617
  O      108.290      89.147     968.065
  O      105.932      89.160     967.047
  H      107.830      88.825     968.867
  H      108.247      92.973     968.363
  H      109.127      91.988     967.219
  H      108.851      91.406     968.843

 6  7  8  9  10  11  12  13  14  15  26  29  33  34 0
 6-311+G(2d,p)
 ****
 36  38  39  40  41 0
 6-311+G(2d,p)
 ****
 1  2  3  4  5  16  17  18  19  20  21  22  23  24  25 0
 3-21G
 ****
 27  28  30  31  32  35  37  42  43  44  45  46  47 0
 3-21G
 ****
 48  49 0
 3-21G
 ****


