%nproc=1
%NoSave
%Mem=1900MB
#P OB98/GEN NMR

erre ene a

0 1
  C     -146.598     -36.445     -69.543
  O     -147.400     -36.906     -70.611
  H     -147.095     -35.592     -69.074
  H     -145.621     -36.125     -69.914
  H     -146.474     -37.235     -68.798
  P     -146.823     -38.126     -71.477
  C     -147.155     -39.755     -69.480
  O     -146.256     -39.203     -70.431
  C     -146.730     -41.179     -69.143
  O     -147.652     -41.754     -68.187
  C     -146.737     -42.129     -70.332
  O     -145.596     -41.967     -71.156
  C     -146.768     -43.474     -69.627
  O     -145.450     -43.896     -69.239
  C     -147.643     -43.181     -68.390
  N     -148.993     -43.722     -68.529
  C     -149.486     -44.403     -67.421
  O     -148.844     -44.554     -66.381
  N     -150.734     -44.945     -67.559
  C     -151.504     -44.905     -68.685
  O     -152.584     -45.472     -68.769
  C     -150.936     -44.157     -69.820
  C     -149.720     -43.616     -69.695
  O     -145.504     -37.506     -72.140
  O     -147.761     -38.678     -72.497
  H     -145.675     -37.284     -73.075
  H     -145.571     -44.690     -68.685
  H     -151.103     -45.453     -66.771
  H     -151.524     -44.100     -70.728
  H     -149.274     -43.078     -70.527
  H     -147.193     -43.624     -67.492
  H     -147.172     -44.255     -70.271
  H     -147.663     -42.010     -70.908
  H     -145.734     -41.145     -68.681
  H     -148.165     -39.772     -69.902
  H     -147.158     -39.125     -68.584
  P     -145.414     -42.945     -72.414
  C     -145.706     -41.043     -74.204
  O     -146.181     -42.254     -73.643
  O     -146.364     -44.162     -72.000
  O     -143.997     -43.315     -72.688
  H     -147.158     -43.878     -71.518
  H     -146.348     -40.746     -75.006
  H     -144.713     -41.188     -74.577
  H     -145.697     -40.281     -73.453

 6  7  8  9  10  11  12  13  14  15  16  27  31  32  33  34  35 0
 6-311+G(2d,p)
 ****
 36  37 0
 6-311+G(2d,p)
 ****
 1  2  3  4  5  17  18  19  20  21  22  23  24  25 0
 3-21G
 ****
 26  28  29  30  38  39  40  41  42  43  44  45 0
 3-21G
 ****


