%nproc=1
%NoSave
%Mem=1900MB
#P OB98/GEN NMR

erre ene a

0 1
  C      167.634      39.890     194.415
  O      168.788      40.691     194.590
  H      167.685      39.421     193.429
  H      166.737      40.510     194.467
  H      167.588      39.104     195.174
  P      169.043      41.375     196.018
  C      168.147      43.742     195.517
  O      169.299      42.936     195.751
  C      168.359      45.128     196.129
  O      168.676      45.011     197.532
  C      169.518      45.907     195.508
  O      169.155      46.438     194.248
  C      169.780      46.946     196.584
  O      168.848      48.032     196.487
  C      169.540      46.124     197.876
  N      170.783      45.662     198.491
  C      171.565      46.623     199.120
  O      171.262      47.820     199.147
  N      172.717      46.171     199.699
  C      173.213      44.902     199.614
  O      174.302      44.572     200.072
  C      172.368      43.934     198.908
  C      171.205      44.349     198.393
  O      170.062      40.708     196.881
  O      167.595      41.361     196.707
  H      168.891      48.350     195.565
  H      167.566      40.666     197.388
  H      173.302      46.862     200.156
  H      172.720      42.915     198.833
  H      170.572      43.646     197.867
  H      168.991      46.726     198.609
  H      170.781      47.373     196.517
  H      170.403      45.262     195.413
  H      167.420      45.693     196.043
  H      167.284      43.269     195.990
  H      167.973      43.820     194.439
  P      169.969      46.006     192.937
  C      168.758      47.852     191.594
  O      169.117      46.467     191.658
  O      170.441      44.594     192.911
  O      171.215      47.015     192.918
  H      172.050      46.501     192.963
  H      168.196      48.034     190.702
  H      169.645      48.450     191.585
  H      168.165      48.106     192.447

 6  7  8  9  10  11  12  13  14  15  16  26  31  32  33  34  35 0
 6-311+G(2d,p)
 ****
 36  37 0
 6-311+G(2d,p)
 ****
 1  2  3  4  5  17  18  19  20  21  22  23  24  25 0
 3-21G
 ****
 27  28  29  30  38  39  40  41  42  43  44  45 0
 3-21G
 ****


