%nproc=1
%NoSave
%Mem=1900MB
#P OB98/GEN NMR

erre ene a

0 1
  C     -152.374    -173.859    -153.280
  O     -152.238    -172.935    -154.361
  P     -152.818    -173.413    -155.779
  C     -151.179    -171.623    -156.700
  O     -152.407    -172.316    -156.876
  C     -150.777    -170.902    -157.989
  O     -150.702    -171.793    -159.117
  C     -151.746    -169.800    -158.392
  O     -151.502    -168.633    -157.625
  C     -151.421    -169.624    -159.869
  O     -150.289    -168.750    -160.057
  C     -151.072    -171.055    -160.310
  N     -153.906    -171.218    -164.509
  C     -153.012    -170.255    -164.081
  N     -152.828    -169.200    -164.899
  N     -152.355    -170.326    -162.952
  C     -152.637    -171.439    -162.235
  C     -153.481    -172.474    -162.565
  C     -154.203    -172.382    -163.817
  O     -154.989    -173.218    -164.249
  N     -153.459    -173.463    -161.614
  C     -152.703    -172.963    -160.654
  N     -152.127    -171.767    -161.008
  O     -154.399    -173.223    -155.615
  O     -152.465    -174.822    -156.121
  H     -150.084    -168.698    -161.008
  H     -154.834    -174.096    -155.574
  H     -154.391    -171.110    -165.383
  H     -152.519    -173.436    -159.701
  H     -150.203    -171.068    -160.978
  H     -152.251    -169.173    -160.417
  H     -153.298    -169.082    -165.784
  H     -152.782    -170.145    -158.272
  H     -152.171    -168.487    -164.608
  H     -149.776    -170.476    -157.828
  H     -150.394    -172.322    -156.409
  H     -151.291    -170.914    -155.874
  P     -152.455    -168.350    -156.368
  C     -152.724    -165.783    -156.085
  O     -152.009    -166.951    -155.731
  O     -151.972    -169.435    -155.294
  O     -153.914    -168.487    -156.654
  H     -152.751    -169.848    -154.876
  H     -152.682    -165.079    -155.252
  H     -153.769    -166.002    -156.315
  H     -152.252    -165.325    -156.960
  H     -151.954    -173.434    -152.392
  H     -151.859    -174.766    -153.519
  H     -153.411    -174.069    -153.119

 3  4  5  6  7  8  9  10  11  12  23  26  30  31 0
 6-311+G(2d,p)
 ****
 33  35  36  37  38 0
 6-311+G(2d,p)
 ****
 1  2  13  14  15  16  17  18  19  20  21  22  24  25 0
 3-21G
 ****
 27  28  29  32  34  39  40  41  42  43  44  45  46  47  48  49 0
 3-21G
 ****


