%nproc=1
%NoSave
%Mem=1900MB
#P OB98/GEN NMR

erre ene a

0 1
  C      107.473      43.097    -135.267
  O      107.945      42.841    -136.575
  H      106.399      42.908    -135.210
  H      107.986      42.429    -134.571
  H      107.685      44.132    -134.983
  P      107.331      43.748    -137.749
  C      108.878      45.695    -137.010
  O      107.556      45.272    -137.298
  C      108.975      47.215    -137.095
  O      110.214      47.669    -136.513
  C      108.955      47.777    -138.512
  O      107.636      47.844    -139.034
  C      109.531      49.165    -138.273
  O      108.510      50.031    -137.743
  C      110.596      48.888    -137.202
  N      114.099      50.847    -140.375
  C      112.882      51.292    -139.989
  N      112.017      50.725    -139.123
  C      112.527      49.587    -138.624
  C      113.757      49.019    -138.904
  C      114.565      49.696    -139.830
  N      115.781      49.195    -140.270
  N      113.921      47.838    -138.205
  C      112.799      47.688    -137.534
  N      111.929      48.722    -137.747
  O      105.752      43.526    -137.579
  O      107.794      43.403    -139.123
  H      107.765      50.001    -138.373
  H      105.456      42.841    -138.207
  H      112.560      52.224    -140.438
  H      112.573      46.850    -136.886
  H      110.642      49.682    -136.449
  H      109.912      49.632    -139.186
  H      109.626      47.220    -139.174
  H      108.156      47.638    -136.496
  H      109.569      45.248    -137.733
  H      116.022      49.483    -141.214
  H      115.942      48.224    -140.035
  H      109.144      45.353    -136.004
  P      107.471      48.022    -140.619
  C      107.477      45.450    -140.891
  O      108.054      46.684    -141.292
  O      108.566      49.134    -140.969
  O      106.115      48.438    -141.075
  H      108.140      49.888    -141.422
  H      107.955      44.647    -141.412
  H      106.432      45.453    -141.122
  H      107.609      45.320    -139.837

 6  7  8  9  10  11  12  13  14  15  25  28  32  33  34  35 0
 6-311+G(2d,p)
 ****
 36  39  40 0
 6-311+G(2d,p)
 ****
 1  2  3  4  5  16  17  18  19  20  21  22  23  24 0
 3-21G
 ****
 26  27  29  30  31  37  38  41  42  43  44  45  46  47  48 0
 3-21G
 ****


