%nproc=1
%NoSave
%Mem=1900MB
#P OB98/GEN NMR

erre ene a

0 1
  C     -280.759     -35.305      19.011
  O     -280.496     -35.388      20.422
  P     -280.095     -34.116      21.318
  C     -278.280     -35.123      22.848
  O     -279.606     -34.618      22.764
  C     -278.234     -36.482      23.564
  O     -278.252     -36.280      25.016
  C     -279.397     -37.423      23.217
  O     -278.851     -38.748      23.150
  C     -280.310     -37.259      24.421
  O     -281.250     -38.310      24.576
  C     -279.255     -37.183      25.541
  N     -279.744     -36.706      26.830
  C     -279.476     -37.505      27.954
  O     -278.904     -38.583      27.855
  N     -279.886     -37.045      29.190
  C     -280.514     -35.920      29.290
  N     -280.880     -35.528      30.542
  C     -280.832     -35.065      28.138
  C     -280.424     -35.512      26.950
  O     -281.167     -33.074      21.388
  O     -278.773     -33.513      20.647
  H     -278.785     -32.548      20.727
  H     -280.757     -39.154      24.562
  H     -281.351     -34.130      28.265
  H     -280.592     -34.931      26.048
  H     -278.780     -38.161      25.657
  H     -280.866     -36.321      24.319
  H     -279.884     -37.196      22.264
  H     -277.276     -36.955      23.326
  H     -280.634     -36.138      31.318
  H     -277.665     -34.407      23.406
  H     -281.362     -34.670      30.743
  H     -277.868     -35.211      21.835
  P     -277.971     -39.183      21.878
  C     -279.143     -41.466      21.455
  O     -277.964     -40.781      21.816
  O     -276.482     -38.863      22.385
  O     -278.249     -38.450      20.604
  H     -275.909     -38.697      21.611
  H     -278.894     -42.257      20.745
  H     -279.882     -40.812      20.993
  H     -279.586     -41.925      22.348
  H     -281.004     -36.277      18.636
  H     -279.890     -34.937      18.507
  H     -281.579     -34.639      18.840

 3  4  5  6  7  8  9  10  11  12  13  24  27  28  29  30  32 0
 6-311+G(2d,p)
 ****
 34  35 0
 6-311+G(2d,p)
 ****
 1  2  14  15  16  17  18  19  20  21  22  23  25  26 0
 3-21G
 ****
 31  33  36  37  38  39  40  41  42  43  44  45  46 0
 3-21G
 ****


