%nproc=1
%NoSave
%Mem=1900MB
#P OB98/GEN NMR

erre ene a

0 1
  C     -202.678     164.463      47.893
  O     -203.335     164.243      46.656
  P     -204.438     163.073      46.613
  C     -204.366     160.479      46.919
  O     -203.645     161.700      46.844
  C     -203.669     159.419      46.061
  O     -203.727     159.782      44.667
  C     -202.195     159.221      46.388
  O     -202.045     158.374      47.513
  C     -201.676     158.616      45.089
  O     -201.961     157.205      45.027
  C     -202.480     159.388      44.033
  N     -198.841     160.986      40.905
  C     -199.153     159.705      41.328
  N     -198.409     158.703      40.805
  N     -200.104     159.434      42.184
  C     -200.752     160.532      42.633
  C     -200.528     161.850      42.301
  C     -199.508     162.134      41.316
  O     -199.262     163.237      40.833
  N     -201.371     162.690      42.979
  C     -202.125     161.879      43.695
  N     -201.804     160.559      43.503
  O     -204.858     163.029      45.073
  O     -205.609     163.270      47.527
  H     -201.554     156.761      45.793
  H     -205.690     163.522      44.928
  H     -198.111     161.134      40.232
  H     -202.928     162.195      44.346
  H     -202.742     158.758      43.173
  H     -200.589     158.719      44.991
  H     -197.648     158.841      40.162
  H     -201.710     160.189      46.566
  H     -198.623     157.760      41.109
  H     -204.220     158.475      46.182
  H     -205.380     160.636      46.543
  H     -204.421     160.158      47.965
  P     -200.711     158.530      48.388
  C     -198.184     158.345      47.800
  O     -199.506     157.914      47.527
  O     -200.916     157.473      49.571
  O     -200.475     159.906      48.921
  H     -200.532     157.827      50.398
  H     -197.498     157.532      47.562
  H     -198.059     158.625      48.848
  H     -197.952     159.206      47.168
  H     -201.975     165.262      47.786
  H     -202.164     163.572      48.187
  H     -203.400     164.721      48.639

 3  4  5  6  7  8  9  10  11  12  23  26  30  31 0
 6-311+G(2d,p)
 ****
 33  35  36  37  38 0
 6-311+G(2d,p)
 ****
 1  2  13  14  15  16  17  18  19  20  21  22  24  25 0
 3-21G
 ****
 27  28  29  32  34  39  40  41  42  43  44  45  46  47  48  49 0
 3-21G
 ****


