%nproc=1
%NoSave
%Mem=1900MB
#P OB98/GEN NMR

erre ene a

0 1
  C     -818.276     -28.809    -597.921
  O     -818.968     -27.669    -597.457
  P     -820.080     -27.013    -598.416
  C     -818.951     -24.667    -598.515
  O     -819.343     -25.844    -599.227
  C     -818.364     -23.640    -599.489
  O     -817.006     -23.963    -599.818
  C     -819.091     -23.559    -600.820
  O     -820.270     -22.761    -600.756
  C     -818.037     -22.855    -601.685
  O     -818.052     -21.444    -601.430
  C     -816.733     -23.493    -601.163
  N     -813.163     -25.000    -604.412
  C     -813.206     -23.870    -603.609
  N     -812.195     -22.996    -603.743
  N     -814.172     -23.634    -602.755
  C     -815.126     -24.585    -602.730
  C     -815.180     -25.751    -603.474
  C     -814.124     -26.014    -604.422
  O     -814.052     -26.958    -605.190
  N     -816.306     -26.482    -603.174
  C     -816.926     -25.764    -602.261
  N     -816.279     -24.591    -601.983
  O     -821.029     -26.216    -597.401
  O     -820.829     -28.006    -599.250
  H     -817.303     -21.067    -601.948
  H     -821.872     -26.019    -597.836
  H     -812.398     -25.151    -605.045
  H     -817.847     -26.062    -601.770
  H     -815.927     -22.756    -601.100
  H     -818.212     -23.000    -602.755
  H     -811.453     -23.092    -604.419
  H     -819.302     -24.553    -601.233
  H     -812.237     -22.128    -603.212
  H     -818.366     -22.660    -598.984
  H     -818.221     -24.922    -597.765
  H     -819.837     -24.244    -598.016
  P     -821.239     -22.793    -602.029
  C     -821.106     -20.203    -602.226
  O     -820.907     -21.458    -602.856
  O     -822.681     -22.505    -601.386
  O     -821.205     -24.069    -602.795
  H     -823.387     -22.897    -601.952
  H     -820.599     -19.430    -602.816
  H     -820.709     -20.198    -601.215
  H     -822.170     -19.963    -602.209
  H     -817.575     -29.127    -597.178
  H     -817.754     -28.567    -598.823
  H     -818.974     -29.597    -598.113

 3  4  5  6  7  8  9  10  11  12  23  26  30  31 0
 6-311+G(2d,p)
 ****
 33  35  36  37  38 0
 6-311+G(2d,p)
 ****
 1  2  13  14  15  16  17  18  19  20  21  22  24  25 0
 3-21G
 ****
 27  28  29  32  34  39  40  41  42  43  44  45  46  47  48  49 0
 3-21G
 ****


