%nproc=1
%NoSave
%Mem=1900MB
#P OB98/GEN NMR

erre ene a

0 1
  C      -94.669    -241.215     -45.103
  O      -95.936    -240.589     -45.182
  H      -94.805    -242.237     -44.743
  H      -94.033    -240.676     -44.397
  H      -94.195    -241.244     -46.086
  P      -95.971    -239.099     -45.778
  C      -94.541    -237.974     -47.625
  O      -95.195    -239.155     -47.186
  C      -93.569    -238.287     -48.763
  O      -92.679    -239.362     -48.340
  C      -94.249    -238.741     -50.067
  O      -93.478    -238.239     -51.167
  C      -94.086    -240.253     -50.027
  O      -94.188    -240.850     -51.317
  C      -92.701    -240.358     -49.385
  N      -91.741    -245.113     -50.723
  C      -91.901    -243.979     -51.495
  N      -91.792    -244.133     -52.833
  N      -92.150    -242.795     -51.000
  C      -92.204    -242.781     -49.646
  C      -92.066    -243.834     -48.769
  C      -91.819    -245.145     -49.334
  O      -91.686    -246.190     -48.702
  N      -92.215    -243.415     -47.469
  C      -92.438    -242.115     -47.563
  N      -92.442    -241.684     -48.861
  O      -94.959    -238.314     -44.818
  O      -97.319    -238.459     -45.817
  H      -95.134    -240.869     -51.565
  H      -95.448    -237.889     -44.086
  H      -91.564    -246.003     -51.157
  H      -92.609    -241.446     -46.728
  H      -91.895    -240.132     -50.093
  H      -94.852    -240.699     -49.381
  H      -91.553    -245.002     -53.282
  H      -95.291    -238.423     -50.169
  H      -91.861    -243.303     -53.413
  H      -92.940    -237.409     -48.937
  H      -93.982    -237.543     -46.785
  H      -95.290    -237.252     -47.964
  P      -94.261    -237.565     -52.391
  C      -95.441    -235.275     -52.767
  O      -95.030    -236.269     -51.838
  O      -95.459    -238.599     -52.659
  O      -93.428    -237.355     -53.613
  H      -95.728    -238.554     -53.595
  H      -95.936    -234.482     -52.246
  H      -96.113    -235.708     -53.478
  H      -94.584    -234.887     -53.276

 6  7  8  9  10  11  12  13  14  15  26  29  33  34 0
 6-311+G(2d,p)
 ****
 36  38  39  40  41 0
 6-311+G(2d,p)
 ****
 1  2  3  4  5  16  17  18  19  20  21  22  23  24  25 0
 3-21G
 ****
 27  28  30  31  32  35  37  42  43  44  45  46  47 0
 3-21G
 ****
 48  49 0
 3-21G
 ****


