%nproc=1
%NoSave
%Mem=1900MB
#P OB98/GEN NMR

erre ene a

0 1
  C      -49.793     147.001      95.163
  O      -49.667     145.592      95.162
  H      -50.092     147.326      94.164
  H      -48.835     147.464      95.413
  H      -50.558     147.309      95.880
  P      -49.255     144.910      96.555
  C      -51.302     143.325      96.567
  O      -50.649     144.426      97.184
  C      -51.325     142.123      97.507
  O      -52.220     142.357      98.609
  C      -51.797     140.828      96.858
  O      -50.748     140.216      96.127
  C      -52.175     140.016      98.088
  O      -50.989     139.457      98.686
  C      -52.779     141.081      99.020
  N      -57.156     139.392     101.102
  C      -55.879     138.975     101.236
  N      -54.773     139.442     100.620
  C      -55.080     140.450      99.788
  C      -56.337     140.983      99.547
  C      -57.409     140.417     100.257
  N      -58.710     140.853     100.124
  N      -56.266     142.007      98.626
  C      -54.982     142.126      98.357
  N      -54.226     141.182      99.006
  O      -48.375     145.723      97.438
  O      -48.617     143.532      96.042
  H      -50.437     139.100      97.965
  H      -49.122     143.182      95.287
  H      -55.724     138.157     101.934
  H      -54.548     142.883      97.716
  H      -52.489     140.917     100.064
  H      -52.834     139.180      97.847
  H      -52.691     140.989      96.247
  H      -50.317     142.006      97.926
  H      -50.798     143.058      95.633
  H      -59.435     140.285     100.535
  H      -58.912     141.531      99.404
  H      -52.324     143.640      96.332
  P      -51.069     139.280      94.866
  C      -51.494     141.362      93.420
  O      -52.024     140.131      93.896
  O      -51.579     137.922      95.203
  O      -49.695     139.215      94.054
  H      -49.560     138.320      93.686
  H      -52.213     141.839      92.787
  H      -50.599     141.174      92.864
  H      -51.271     141.999      94.250

 6  7  8  9  10  11  12  13  14  15  25  28  32  33  34  35 0
 6-311+G(2d,p)
 ****
 36  39  40 0
 6-311+G(2d,p)
 ****
 1  2  3  4  5  16  17  18  19  20  21  22  23  24 0
 3-21G
 ****
 26  27  29  30  31  37  38  41  42  43  44  45  46  47 0
 3-21G
 ****
 48 0
 3-21G
 ****


