%nproc=1
%NoSave
%Mem=1900MB
#P OB98/GEN NMR

erre ene a

0 1
  C        4.038      70.535     -45.253
  O        3.974      71.419     -44.153
  H        4.239      69.528     -44.881
  H        4.849      70.828     -45.924
  H        3.091      70.523     -45.799
  P        3.490      72.927     -44.400
  C        1.131      71.912     -44.174
  O        1.954      72.852     -44.851
  C       -0.339      72.226     -44.433
  O       -1.174      71.173     -43.908
  C       -0.826      73.510     -43.771
  O       -0.373      74.648     -44.479
  C       -2.331      73.292     -43.804
  O       -2.865      73.602     -45.100
  C       -2.428      71.775     -43.515
  N       -2.738      71.474     -42.118
  C       -3.212      70.194     -41.851
  O       -3.407      69.353     -42.727
  N       -3.473      69.916     -40.536
  C       -3.389      70.800     -39.500
  O       -3.688      70.515     -38.344
  C       -2.917      72.148     -39.846
  C       -2.617      72.418     -41.118
  O        4.364      73.753     -45.283
  O        3.400      73.539     -42.923
  H       -2.413      74.414     -45.400
  H        4.192      74.078     -42.742
  H       -3.829      68.998     -40.324
  H       -2.843      72.877     -39.051
  H       -2.272      73.409     -41.394
  H       -3.204      71.319     -44.142
  H       -2.863      73.917     -43.087
  H       -0.500      73.545     -42.726
  H       -0.493      72.267     -45.520
  H        1.334      71.976     -43.099
  H        1.380      70.906     -44.524
  P       -0.765      76.121     -43.997
  C        1.346      76.228     -42.552
  O       -0.069      76.365     -42.570
  O       -2.222      76.439     -44.040
  O        0.064      77.081     -44.972
  H       -0.538      77.490     -45.625
  H        1.709      76.409     -41.562
  H        1.781      76.935     -43.227
  H        1.612      75.237     -42.854

 6  7  8  9  10  11  12  13  14  15  16  26  31  32  33  34  35 0
 6-311+G(2d,p)
 ****
 36  37 0
 6-311+G(2d,p)
 ****
 1  2  3  4  5  17  18  19  20  21  22  23  24  25 0
 3-21G
 ****
 27  28  29  30  38  39  40  41  42  43  44  45 0
 3-21G
 ****


