%nproc=1
%NoSave
%Mem=1900MB
#P OB98/GEN NMR

erre ene a

0 1
  C      -95.626      -8.343     -31.508
  O      -95.476      -6.963     -31.237
  H      -96.555      -8.493     -32.063
  H      -95.680      -8.906     -30.572
  H      -94.789      -8.702     -32.111
  P      -94.192      -6.545     -30.370
  C      -93.733      -6.127     -27.854
  O      -94.705      -6.376     -28.858
  C      -94.383      -6.112     -26.473
  O      -95.445      -5.135     -26.419
  C      -94.990      -7.445     -26.050
  O      -94.003      -8.301     -25.500
  C      -96.014      -6.990     -25.020
  O      -95.385      -6.725     -23.748
  C      -96.543      -5.691     -25.645
  N     -101.534      -4.995     -25.933
  C     -100.665      -4.787     -24.882
  N     -101.208      -4.354     -23.723
  N      -99.377      -4.995     -24.952
  C      -98.980      -5.482     -26.151
  C      -99.742      -5.732     -27.269
  C     -101.159      -5.445     -27.193
  O     -101.966      -5.530     -28.113
  N      -98.971      -6.205     -28.300
  C      -97.754      -6.271     -27.795
  N      -97.709      -5.848     -26.492
  O      -93.906      -5.037     -30.831
  O      -92.987      -7.402     -30.554
  H      -95.143      -7.570     -23.330
  H      -92.940      -4.900     -30.870
  H     -102.511      -4.788     -25.831
  H      -96.877      -6.606     -28.332
  H      -96.808      -4.950     -24.883
  H      -96.768      -7.756     -24.836
  H     -102.192      -4.456     -23.522
  H      -95.509      -7.926     -26.888
  H     -100.580      -4.274     -22.933
  H      -93.618      -5.793     -25.753
  H      -93.266      -5.156     -28.046
  H      -92.966      -6.907     -27.893
  P      -94.178      -9.881     -25.693
  C      -94.562     -11.906     -24.114
  O      -94.656     -10.500     -24.291
  O      -92.668     -10.393     -25.834
  O      -94.990     -10.278     -26.878
  H      -92.479     -10.614     -26.765
  H      -94.915     -12.167     -23.138
  H      -93.542     -12.211     -24.218
  H      -95.159     -12.399     -24.852

 6  7  8  9  10  11  12  13  14  15  26  29  33  34 0
 6-311+G(2d,p)
 ****
 36  38  39  40  41 0
 6-311+G(2d,p)
 ****
 1  2  3  4  5  16  17  18  19  20  21  22  23  24  25 0
 3-21G
 ****
 27  28  30  31  32  35  37  42  43  44  45  46  47 0
 3-21G
 ****
 48  49 0
 3-21G
 ****


