%nproc=1
%NoSave
%Mem=1900MB
#P OB98/GEN NMR

erre ene a

0 1
  C     -136.478     669.368     368.275
  O     -135.581     669.968     369.197
  P     -134.605     668.999     370.036
  C     -135.078     670.396     372.184
  O     -135.101     669.107     371.557
  C     -136.122     670.470     373.290
  O     -137.432     670.646     372.736
  C     -136.206     669.223     374.170
  O     -135.207     669.210     375.175
  C     -137.584     669.399     374.796
  O     -137.514     670.357     375.874
  C     -138.393     669.999     373.626
  N     -142.610     667.113     373.614
  C     -142.110     667.964     374.531
  N     -140.965     668.683     374.464
  C     -140.308     668.435     373.316
  C     -140.683     667.571     372.298
  C     -141.911     666.897     372.469
  N     -142.437     666.045     371.516
  N     -139.763     667.574     371.280
  C     -138.847     668.444     371.668
  N     -139.141     668.998     372.882
  O     -133.221     669.795     370.037
  O     -134.463     667.618     369.482
  H     -137.080     669.900     376.621
  H     -132.471     669.173     370.186
  H     -142.683     668.082     375.438
  H     -137.956     668.709     371.100
  H     -139.097     670.769     373.954
  H     -137.990     668.476     375.205
  H     -136.194     668.305     373.552
  H     -135.891     671.359     373.906
  H     -135.303     671.163     371.435
  H     -143.394     665.751     371.634
  H     -142.019     666.044     370.596
  H     -134.078     670.582     372.582
  P     -134.885     667.777     375.851
  C     -133.474     669.085     377.598
  O     -134.477     668.103     377.357
  O     -133.502     667.349     375.146
  O     -135.963     666.757     375.652
  H     -133.412     666.376     375.148
  H     -133.538     669.404     378.646
  H     -133.624     669.962     376.957
  H     -132.495     668.670     377.416
  H     -137.058     670.129     367.795
  H     -137.130     668.698     368.796
  H     -135.923     668.825     367.539

 3  4  5  6  7  8  9  10  11  12  22  25  29  30  31  32 0
 6-311+G(2d,p)
 ****
 33  36  37 0
 6-311+G(2d,p)
 ****
 1  2  13  14  15  16  17  18  19  20  21  23  24  26 0
 3-21G
 ****
 27  28  34  35  38  39  40  41  42  43  44  45  46  47  48 0
 3-21G
 ****


