%nproc=1
%NoSave
%Mem=1900MB
#P OB98/GEN NMR

erre ene a

0 1
  C     -467.494    -136.916    -374.250
  O     -468.331    -136.382    -373.245
  H     -467.089    -136.088    -374.847
  H     -468.069    -137.568    -374.917
  H     -466.661    -137.475    -373.812
  P     -468.929    -137.369    -372.138
  C     -470.236    -135.404    -371.090
  O     -470.304    -136.724    -371.630
  C     -471.643    -134.879    -370.820
  O     -472.216    -134.352    -372.039
  C     -472.619    -135.953    -370.344
  O     -472.395    -136.289    -368.994
  C     -473.946    -135.270    -370.622
  O     -474.293    -134.356    -369.572
  C     -473.647    -134.506    -371.935
  N     -474.191    -135.194    -373.101
  C     -475.502    -134.887    -373.449
  O     -476.198    -134.078    -372.828
  N     -476.027    -135.598    -374.501
  C     -475.420    -136.647    -375.130
  O     -476.016    -137.403    -375.890
  C     -474.018    -136.888    -374.771
  C     -473.472    -136.168    -373.780
  O     -467.977    -137.770    -371.051
  O     -469.419    -138.639    -372.980
  H     -468.766    -139.358    -372.889
  H     -474.264    -134.871    -368.747
  H     -476.995    -135.401    -374.729
  H     -473.487    -137.664    -375.292
  H     -472.452    -136.348    -373.473
  H     -474.078    -133.495    -371.895
  H     -474.757    -135.995    -370.718
  H     -472.533    -136.839    -370.980
  H     -471.571    -134.059    -370.090
  H     -469.737    -134.756    -371.817
  H     -469.642    -135.420    -370.169
  P     -472.436    -137.825    -368.527
  C     -470.466    -137.606    -366.891
  O     -471.848    -137.923    -367.038
  O     -471.845    -138.797    -369.495
  O     -473.996    -138.120    -368.312
  H     -474.238    -138.948    -368.788
  H     -470.185    -137.704    -365.863
  H     -470.295    -136.600    -367.213
  H     -469.881    -138.276    -367.486

 6  7  8  9  10  11  12  13  14  15  16  27  31  32  33  34  35 0
 6-311+G(2d,p)
 ****
 36  37 0
 6-311+G(2d,p)
 ****
 1  2  3  4  5  17  18  19  20  21  22  23  24  25 0
 3-21G
 ****
 26  28  29  30  38  39  40  41  42  43  44  45 0
 3-21G
 ****


