%nproc=1
%NoSave
%Mem=1900MB
#P OB98/GEN NMR

erre ene a

0 1
  C     -578.592    -399.667     151.888
  O     -579.517    -399.685     150.812
  P     -579.702    -401.071     150.025
  C     -577.337    -401.143     148.934
  O     -578.741    -401.004     148.743
  C     -576.668    -401.532     147.618
  O     -577.060    -402.865     147.236
  C     -577.030    -400.643     146.435
  O     -576.348    -399.403     146.502
  C     -576.604    -401.543     145.273
  O     -575.181    -401.478     145.093
  C     -577.015    -402.940     145.785
  N     -579.464    -406.325     142.823
  C     -578.148    -406.138     143.084
  N     -577.575    -405.201     143.868
  C     -578.498    -404.403     144.421
  C     -579.873    -404.459     144.230
  C     -580.359    -405.473     143.386
  N     -581.693    -405.657     143.126
  N     -580.508    -403.457     144.937
  C     -579.535    -402.817     145.555
  N     -578.308    -403.357     145.286
  O     -581.170    -400.941     149.393
  O     -579.565    -402.300     150.869
  H     -574.918    -402.276     144.593
  H     -581.612    -401.810     149.367
  H     -577.470    -406.837     142.607
  H     -579.672    -401.963     146.205
  H     -576.291    -403.714     145.518
  H     -577.069    -401.262     144.323
  H     -578.110    -400.478     146.399
  H     -575.578    -401.533     147.781
  H     -577.146    -401.925     149.672
  H     -581.939    -406.312     142.398
  H     -582.341    -404.943     143.429
  H     -576.942    -400.197     149.314
  P     -577.189    -398.085     146.130
  C     -578.212    -398.584     143.832
  O     -577.118    -398.019     144.525
  O     -576.181    -396.924     146.574
  O     -578.553    -398.025     146.724
  H     -575.286    -397.069     146.232
  H     -578.058    -398.429     142.760
  H     -579.146    -398.117     144.131
  H     -578.259    -399.665     144.020
  H     -578.567    -398.689     152.321
  H     -577.618    -399.921     151.525
  H     -578.893    -400.378     152.629

 3  4  5  6  7  8  9  10  11  12  22  25  29  30  31  32 0
 6-311+G(2d,p)
 ****
 33  36  37 0
 6-311+G(2d,p)
 ****
 1  2  13  14  15  16  17  18  19  20  21  23  24  26 0
 3-21G
 ****
 27  28  34  35  38  39  40  41  42  43  44  45  46  47  48 0
 3-21G
 ****


