%nproc=1
%NoSave
%Mem=1900MB
#P OB98/GEN NMR

erre ene a

0 1
  C      636.714    1140.517     211.003
  O      637.197    1139.192     210.776
  P      636.097    1138.068     210.431
  C      636.976    1137.670     207.988
  O      635.932    1138.120     208.834
  C      636.398    1137.003     206.743
  O      635.772    1135.742     207.086
  C      635.342    1137.823     206.042
  O      635.908    1138.905     205.316
  C      634.676    1136.749     205.167
  O      635.464    1136.519     203.986
  C      634.737    1135.511     206.085
  N      633.458    1135.196     206.708
  C      632.336    1135.222     205.871
  O      632.419    1135.502     204.675
  N      631.151    1134.931     206.462
  C      630.950    1134.639     207.784
  O      629.859    1134.371     208.245
  C      632.148    1134.675     208.627
  C      633.338    1134.947     208.064
  O      634.765    1138.737     210.991
  O      636.429    1136.730     211.007
  H      634.755    1139.704     210.883
  H      636.270    1136.060     204.269
  H      630.329    1134.911     205.856
  H      632.031    1134.496     209.685
  H      634.233    1134.997     208.672
  H      635.063    1134.632     205.521
  H      633.672    1137.028     204.850
  H      634.612    1138.189     206.771
  H      637.232    1136.788     206.055
  H      637.611    1136.953     208.523
  H      637.608    1138.527     207.722
  P      635.290    1140.370     205.604
  C      637.553    1141.554     206.201
  O      636.299    1141.077     206.628
  O      634.020    1140.003     206.499
  O      634.996    1141.145     204.365
  H      634.207    1139.327     207.177
  H      637.924    1142.278     206.930
  H      637.471    1142.045     205.218
  H      638.272    1140.719     206.133
  H      637.538    1141.164     211.221
  H      636.035    1140.512     211.830
  H      636.207    1140.867     210.128

 3  4  5  6  7  8  9  10  11  12  13  24  28  29  30  31  32 0
 6-311+G(2d,p)
 ****
 33  34 0
 6-311+G(2d,p)
 ****
 1  2  14  15  16  17  18  19  20  21  22  23  25  26  27 0
 3-21G
 ****
 35  36  37  38  39  40  41  42  43  44  45 0
 3-21G
 ****


