%nproc=1
%NoSave
%Mem=1900MB
#P OB98/GEN NMR

erre ene a

0 1
  C     -515.924    -222.379    -428.418
  O     -515.764    -221.006    -428.122
  H     -516.683    -222.482    -429.205
  H     -516.275    -222.920    -427.532
  H     -514.987    -222.817    -428.774
  P     -514.603    -220.570    -427.113
  C     -513.549    -218.800    -428.674
  O     -514.241    -219.046    -427.449
  C     -513.095    -217.346    -428.733
  O     -514.241    -216.475    -428.878
  C     -512.385    -216.872    -427.466
  O     -511.066    -217.369    -427.401
  C     -512.493    -215.366    -427.631
  O     -511.475    -214.861    -428.504
  C     -513.892    -215.213    -428.275
  N     -514.898    -214.798    -427.302
  C     -514.588    -213.688    -426.521
  O     -513.529    -213.061    -426.623
  N     -515.509    -213.355    -425.557
  C     -516.612    -214.090    -425.228
  O     -517.264    -213.889    -424.209
  C     -516.929    -215.210    -426.120
  C     -516.065    -215.519    -427.099
  O     -513.427    -221.499    -427.043
  O     -515.343    -220.459    -425.698
  H     -515.144    -221.254    -425.168
  H     -510.646    -214.887    -427.995
  H     -515.265    -212.570    -424.964
  H     -517.825    -215.772    -425.931
  H     -516.256    -216.360    -427.751
  H     -513.862    -214.467    -429.082
  H     -512.400    -214.852    -426.672
  H     -512.955    -217.179    -426.586
  H     -512.452    -217.221    -429.618
  H     -514.233    -219.005    -429.503
  H     -512.693    -219.481    -428.748
  P     -510.301    -217.438    -425.992
  C     -509.156    -219.708    -426.367
  O     -508.966    -218.307    -426.176
  O     -511.149    -217.837    -424.829
  O     -509.730    -215.953    -425.791
  H     -509.972    -215.631    -424.891
  H     -508.205    -220.185    -426.478
  H     -509.742    -219.872    -427.247
  H     -509.664    -220.118    -425.519

 6  7  8  9  10  11  12  13  14  15  16  27  31  32  33  34  35 0
 6-311+G(2d,p)
 ****
 36  37 0
 6-311+G(2d,p)
 ****
 1  2  3  4  5  17  18  19  20  21  22  23  24  25 0
 3-21G
 ****
 26  28  29  30  38  39  40  41  42  43  44  45 0
 3-21G
 ****


