%nproc=1
%NoSave
%Mem=1900MB
#P OB98/GEN NMR

erre ene a

0 1
  C     -300.664    -287.369    -256.885
  O     -299.939    -286.313    -256.288
  H     -301.568    -287.551    -256.295
  H     -300.068    -288.286    -256.904
  H     -300.963    -287.098    -257.902
  P     -298.510    -285.929    -256.901
  C     -299.165    -283.668    -257.970
  O     -298.793    -285.020    -258.191
  C     -300.674    -283.477    -258.178
  O     -301.390    -284.300    -257.216
  C     -301.146    -282.023    -257.979
  O     -302.284    -281.829    -258.829
  C     -301.564    -282.045    -256.521
  O     -302.337    -280.921    -256.191
  C     -302.236    -283.419    -256.443
  N     -302.407    -283.884    -255.078
  C     -303.505    -283.369    -254.383
  O     -304.258    -282.561    -254.923
  N     -303.702    -283.758    -253.081
  C     -302.841    -284.540    -252.502
  N     -303.088    -284.877    -251.211
  C     -301.635    -285.058    -253.187
  C     -301.483    -284.695    -254.460
  O     -297.575    -287.067    -257.133
  O     -297.907    -284.884    -255.848
  H     -301.811    -280.092    -256.268
  H     -297.214    -285.315    -255.314
  H     -300.940    -285.687    -252.657
  H     -300.631    -285.023    -255.045
  H     -303.221    -283.397    -256.930
  H     -300.683    -282.019    -255.871
  H     -300.375    -281.287    -258.206
  H     -300.940    -283.846    -259.176
  H     -303.918    -284.492    -250.780
  H     -298.609    -283.053    -258.686
  H     -302.478    -285.461    -250.657
  H     -298.892    -283.363    -256.955
  P     -302.189    -281.832    -260.429
  C     -304.063    -283.514    -260.988
  O     -302.659    -283.258    -260.983
  O     -300.866    -281.381    -260.959
  O     -303.351    -280.841    -260.916
  H     -303.075    -280.420    -261.754
  H     -304.246    -284.493    -261.379
  H     -304.556    -282.788    -261.601
  H     -304.440    -283.452    -259.989

 6  7  8  9  10  11  12  13  14  15  16  26  30  31  32  33  35 0
 6-311+G(2d,p)
 ****
 37  38 0
 6-311+G(2d,p)
 ****
 1  2  3  4  5  17  18  19  20  21  22  23  24  25 0
 3-21G
 ****
 27  28  29  34  36  39  40  41  42  43  44  45  46 0
 3-21G
 ****


