%nproc=1
%NoSave
%Mem=1900MB
#P OB98/GEN NMR

erre ene a

0 1
  C      101.342      -5.424     -66.032
  O      101.291      -6.104     -67.270
  H      102.319      -5.565     -65.563
  H      101.188      -4.356     -66.209
  H      100.554      -5.790     -65.367
  P      101.531      -7.690     -67.234
  C      104.040      -7.407     -67.863
  O      103.094      -7.871     -66.911
  C      105.183      -8.411     -67.967
  O      106.251      -7.865     -68.774
  C      105.815      -8.763     -66.626
  O      105.084      -9.753     -65.922
  C      107.164      -9.293     -67.080
  O      107.014     -10.627     -67.597
  C      107.514      -8.317     -68.214
  N      112.119      -6.083     -68.215
  C      111.665      -7.212     -68.800
  N      110.419      -7.727     -68.769
  C      109.598      -6.945     -68.052
  C      109.916      -5.762     -67.404
  C      111.250      -5.331     -67.500
  N      111.725      -4.198     -66.880
  N      108.811      -5.254     -66.751
  C      107.842      -6.106     -67.017
  N      108.276      -7.161     -67.773
  O      101.430      -8.126     -68.770
  O      100.622      -8.467     -66.343
  H      107.912     -10.967     -67.773
  H      101.337      -9.095     -68.843
  H      112.400      -7.778     -69.364
  H      106.818      -6.010     -66.679
  H      108.084      -8.794     -69.020
  H      107.894      -9.343     -66.268
  H      105.972      -7.871     -66.009
  H      104.808      -9.309     -68.474
  H      104.430      -6.438     -67.537
  H      112.722      -4.054     -66.884
  H      111.125      -3.715     -66.228
  H      103.551      -7.291     -68.835
  P      104.321      -9.298     -64.584
  C      106.433      -9.466     -63.081
  O      105.429      -8.626     -63.637
  O      104.011     -10.689     -63.859
  O      103.086      -8.491     -64.816
  H      103.178     -10.639     -63.353
  H      107.094      -8.880     -62.477
  H      106.987      -9.930     -63.870
  H      105.973     -10.220     -62.477

 6  7  8  9  10  11  12  13  14  15  25  28  32  33  34  35 0
 6-311+G(2d,p)
 ****
 36  39  40 0
 6-311+G(2d,p)
 ****
 1  2  3  4  5  16  17  18  19  20  21  22  23  24 0
 3-21G
 ****
 26  27  29  30  31  37  38  41  42  43  44  45  46  47 0
 3-21G
 ****
 48 0
 3-21G
 ****


