%nproc=1
%NoSave
%Mem=1900MB
#P OB98/GEN NMR

erre ene a

0 1
  C      -26.710     121.805     120.672
  O      -28.022     122.362     120.687
  P      -28.647     122.748     122.111
  C      -29.782     120.385     122.212
  O      -29.023     121.384     122.867
  C      -30.946     119.906     123.099
  O      -30.401     119.095     124.172
  C      -31.737     121.011     123.790
  O      -32.996     120.479     124.210
  C      -30.879     121.293     125.003
  O      -31.606     121.992     126.010
  C      -30.380     119.884     125.391
  N      -29.021     119.877     125.977
  C      -28.765     120.706     127.066
  O      -29.604     121.450     127.573
  N      -27.485     120.692     127.547
  C      -26.466     119.915     127.086
  O      -25.315     120.006     127.496
  C      -26.824     118.959     126.031
  C      -28.059     118.990     125.525
  O      -30.060     123.394     121.739
  O      -27.795     123.677     122.908
  H      -31.798     122.887     125.645
  H      -30.025     124.363     121.847
  H      -27.269     121.337     128.293
  H      -26.056     118.278     125.683
  H      -28.332     118.302     124.730
  H      -31.051     119.414     126.121
  H      -30.032     121.925     124.717
  H      -31.895     121.905     123.181
  H      -31.610     119.265     122.507
  H      -29.138     119.544     121.944
  H      -30.183     120.784     121.273
  P      -34.195     120.453     123.146
  C      -35.190     122.530     124.287
  O      -34.762     121.952     123.070
  O      -35.218     119.385     123.336
  O      -33.427     120.299     121.746
  H      -34.047     119.975     121.067
  H      -35.050     123.613     124.230
  H      -34.621     122.142     125.137
  H      -36.252     122.315     124.433
  H      -26.422     121.597     119.663
  H      -26.701     120.898     121.239
  H      -26.022     122.502     121.103

 3  4  5  6  7  8  9  10  11  12  13  23  28  29  30  31  32 0
 6-311+G(2d,p)
 ****
 33  34 0
 6-311+G(2d,p)
 ****
 1  2  14  15  16  17  18  19  20  21  22  24  25  26  27 0
 3-21G
 ****
 35  36  37  38  39  40  41  42  43  44  45 0
 3-21G
 ****


