%nproc=1
%NoSave
%Mem=1900MB
#P OB98/GEN NMR

erre ene a

0 1
  C      821.922    -349.216    -276.681
  O      821.943    -348.708    -275.362
  P      823.288    -348.750    -274.470
  C      822.237    -350.212    -272.603
  O      823.192    -350.130    -273.660
  C      822.378    -351.543    -271.881
  O      821.711    -352.577    -272.635
  C      823.815    -352.023    -271.686
  O      824.457    -351.310    -270.655
  C      823.591    -353.508    -271.437
  O      823.191    -353.724    -270.078
  C      822.416    -353.824    -272.381
  N      822.847    -354.444    -273.631
  C      823.290    -355.773    -273.546
  O      823.312    -356.367    -272.474
  N      823.681    -356.417    -274.703
  C      823.650    -355.776    -275.836
  N      823.992    -356.482    -276.949
  C      823.250    -354.360    -275.962
  C      822.858    -353.768    -274.837
  O      823.518    -347.552    -273.627
  O      824.452    -349.048    -275.526
  H      823.242    -354.692    -269.913
  H      824.837    -348.229    -275.923
  H      823.251    -353.879    -276.920
  H      822.528    -352.745    -274.844
  H      821.700    -354.484    -271.884
  H      824.487    -354.115    -271.634
  H      824.382    -351.887    -272.618
  H      821.880    -351.465    -270.903
  H      824.091    -357.479    -276.840
  H      821.236    -350.138    -273.038
  H      823.724    -356.165    -277.879
  H      822.396    -349.365    -271.920
  P      826.042    -351.466    -270.509
  C      825.911    -352.417    -268.094
  O      826.280    -352.646    -269.443
  O      826.483    -350.140    -269.732
  O      826.768    -351.624    -271.806
  H      826.853    -349.487    -270.355
  H      825.910    -353.369    -267.560
  H      824.910    -351.978    -268.037
  H      826.650    -351.756    -267.619
  H      820.943    -349.094    -277.095
  H      822.176    -350.255    -276.667
  H      822.631    -348.684    -277.280

 3  4  5  6  7  8  9  10  11  12  13  23  27  28  29  30  32 0
 6-311+G(2d,p)
 ****
 34  35 0
 6-311+G(2d,p)
 ****
 1  2  14  15  16  17  18  19  20  21  22  24  25  26 0
 3-21G
 ****
 31  33  36  37  38  39  40  41  42  43  44  45  46 0
 3-21G
 ****


