%nproc=1
%NoSave
%Mem=1900MB
#P OB98/GEN NMR

erre ene a

0 1
  C       52.342     -36.623     -66.019
  O       53.479     -37.421     -65.777
  H       52.672     -35.661     -66.421
  H       51.809     -36.448     -65.080
  H       51.669     -37.092     -66.742
  P       53.289     -39.001     -65.613
  C       53.055     -38.752     -63.055
  O       52.476     -39.259     -64.251
  C       52.986     -39.767     -61.913
  O       51.609     -40.082     -61.608
  C       53.653     -41.094     -62.275
  O       55.056     -41.138     -62.086
  C       52.943     -42.065     -61.335
  O       53.580     -42.090     -60.047
  C       51.538     -41.467     -61.229
  N       48.365     -45.441     -61.719
  C       49.254     -45.159     -60.700
  N       49.351     -46.084     -59.719
  N       49.990     -44.081     -60.664
  C       49.858     -43.295     -61.759
  C       49.020     -43.477     -62.838
  C       48.168     -44.649     -62.841
  O       47.368     -44.949     -63.723
  N       49.158     -42.467     -63.759
  C       50.128     -41.719     -63.275
  N       50.567     -42.166     -62.051
  O       54.760     -39.521     -65.240
  O       52.757     -39.712     -66.821
  H       53.004     -42.574     -59.429
  H       54.864     -40.450     -65.516
  H       47.803     -46.274     -61.681
  H       50.531     -40.833     -63.754
  H       51.167     -41.497     -60.196
  H       52.967     -43.090     -61.719
  H       48.892     -46.981     -59.764
  H       53.411     -41.374     -63.305
  H       50.168     -46.047     -59.107
  H       53.425     -39.325     -61.011
  H       52.492     -37.853     -62.791
  H       54.089     -38.446     -63.234
  P       55.978     -41.947     -63.115
  C       56.370     -43.884     -61.421
  O       55.906     -43.492     -62.694
  O       57.456     -41.504     -62.690
  O       55.707     -41.669     -64.554
  H       57.766     -40.777     -63.260
  H       56.249     -44.941     -61.307
  H       55.808     -43.377     -60.665
  H       57.405     -43.631     -61.325

 6  7  8  9  10  11  12  13  14  15  26  29  33  34 0
 6-311+G(2d,p)
 ****
 36  38  39  40  41 0
 6-311+G(2d,p)
 ****
 1  2  3  4  5  16  17  18  19  20  21  22  23  24  25 0
 3-21G
 ****
 27  28  30  31  32  35  37  42  43  44  45  46  47 0
 3-21G
 ****
 48  49 0
 3-21G
 ****


