%nproc=1
%NoSave
%Mem=1900MB
#P OB98/GEN NMR

erre ene a

0 1
  C     -318.677     220.742      73.763
  O     -318.780     221.875      74.642
  P     -317.792     221.972      75.909
  C     -319.341     220.609      77.506
  O     -318.058     220.758      76.921
  C     -319.274     219.782      78.800
  O     -318.999     218.385      78.493
  C     -318.195     220.249      79.793
  O     -318.695     219.994      81.112
  C     -317.040     219.307      79.484
  O     -316.089     219.223      80.535
  C     -317.813     218.010      79.223
  N     -317.052     216.993      78.494
  C     -316.310     216.076      79.230
  O     -316.204     216.093      80.453
  N     -315.651     215.116      78.502
  C     -315.623     215.019      77.139
  O     -314.984     214.157      76.545
  C     -316.396     216.035      76.412
  C     -317.066     216.957      77.112
  O     -318.405     223.221      76.709
  O     -316.358     222.227      75.582
  H     -316.549     218.846      81.308
  H     -317.685     223.821      76.988
  H     -315.123     214.436      79.019
  H     -316.406     215.986      75.328
  H     -317.654     217.710      76.593
  H     -318.149     217.590      80.180
  H     -316.521     219.660      78.586
  H     -317.934     221.304      79.682
  H     -320.261     219.813      79.272
  H     -320.003     220.098      76.795
  H     -319.758     221.599      77.710
  P     -319.374     221.208      81.917
  C     -317.295     221.122      83.502
  O     -318.222     221.904      82.787
  O     -320.213     220.388      83.015
  O     -320.223     222.111      81.080
  H     -319.702     219.670      83.419
  H     -316.968     220.257      82.921
  H     -317.741     220.786      84.439
  H     -316.420     221.740      83.730
  H     -319.399     220.832      72.979
  H     -318.860     219.844      74.315
  H     -317.695     220.707      73.340

 3  4  5  6  7  8  9  10  11  12  13  23  28  29  30  31  32 0
 6-311+G(2d,p)
 ****
 33  34 0
 6-311+G(2d,p)
 ****
 1  2  14  15  16  17  18  19  20  21  22  24  25  26 0
 3-21G
 ****
 27  35  36  37  38  39  40  41  42  43  44  45 0
 3-21G
 ****


