%nproc=1
%NoSave
%Mem=1900MB
#P OB98/GEN NMR

erre ene a

0 1
  C        6.886    -100.076     163.384
  O        5.867    -101.041     163.124
  P        5.690    -101.595     161.630
  C        3.845     -99.895     161.045
  O        4.194    -101.271     161.148
  C        2.442     -99.735     160.455
  O        2.375    -100.218     159.098
  C        1.379    -100.514     161.211
  O        1.065     -99.879     162.441
  C        0.249    -100.548     160.190
  O       -0.509     -99.326     160.222
  C        1.022    -100.659     158.858
  N        0.988    -101.993     158.283
  C       -0.124    -102.290     157.488
  O       -1.019    -101.461     157.337
  N       -0.194    -103.527     156.897
  C        0.753    -104.392     157.089
  N        0.629    -105.600     156.475
  C        1.935    -104.122     157.930
  C        1.984    -102.920     158.498
  O        6.144    -103.000     161.403
  O        6.563    -100.560     160.766
  H       -1.160     -99.396     159.496
  H        6.916    -101.024     159.984
  H        2.703    -104.873     158.052
  H        2.815    -102.637     159.133
  H        0.601     -99.964     158.118
  H       -0.449    -101.367     160.387
  H        1.733    -101.534     161.401
  H        2.190     -98.663     160.456
  H       -0.194    -105.762     155.913
  H        4.575     -99.380     160.415
  H        1.339    -106.318     156.522
  H        3.909     -99.437     162.038
  P        1.804    -100.410     163.760
  C        0.263    -102.481     163.997
  O        0.756    -101.295     164.587
  O        1.949     -99.082     164.647
  O        3.135    -101.045     163.520
  H        2.773     -99.124     165.163
  H       -0.171    -103.107     164.782
  H        1.060    -103.042     163.499
  H       -0.519    -102.235     163.272
  H        6.871     -99.812     164.421
  H        6.710     -99.203     162.791
  H        7.841    -100.490     163.135

 3  4  5  6  7  8  9  10  11  12  13  23  27  28  29  30  32 0
 6-311+G(2d,p)
 ****
 34  35 0
 6-311+G(2d,p)
 ****
 1  2  14  15  16  17  18  19  20  21  22  24  25  26 0
 3-21G
 ****
 31  33  36  37  38  39  40  41  42  43  44  45  46 0
 3-21G
 ****


