%nproc=1
%NoSave
%Mem=1900MB
#P OB98/GEN NMR

erre ene a

0 1
  C     1063.901     -92.368     876.027
  O     1064.622     -92.458     877.278
  P     1065.304     -93.889     877.572
  C     1062.842     -94.748     877.536
  O     1064.136     -94.868     878.113
  C     1061.825     -95.682     878.249
  O     1062.240     -97.059     878.119
  C     1061.718     -95.416     879.736
  O     1060.894     -94.288     880.027
  C     1061.075     -96.723     880.211
  O     1059.640     -96.655     879.997
  C     1061.699     -97.775     879.279
  N     1062.917    -101.956     881.893
  C     1061.684    -101.532     881.428
  N     1060.630    -102.329     881.671
  N     1061.505    -100.385     880.772
  C     1062.642     -99.682     880.574
  C     1063.950    -100.006     880.998
  C     1064.112    -101.246     881.728
  O     1065.176    -101.636     882.194
  N     1064.849     -99.065     880.582
  C     1064.136     -98.188     879.930
  N     1062.776     -98.514     879.892
  O     1066.160     -93.620     878.919
  O     1066.147     -94.429     876.473
  H     1059.508     -96.476     879.053
  H     1066.907     -94.219     878.961
  H     1063.000    -102.803     882.381
  H     1064.508     -97.302     879.415
  H     1060.953     -98.491     878.905
  H     1061.255     -96.909     881.282
  H     1060.724    -103.216     882.077
  H     1062.744     -95.315     880.204
  H     1059.709    -102.057     881.304
  H     1060.860     -95.557     877.770
  H     1062.886     -95.046     876.443
  H     1062.514     -93.701     877.571
  P     1061.615     -92.869     880.134
  C     1060.834     -92.602     882.598
  O     1060.819     -92.074     881.299
  O     1061.177     -92.142     878.796
  O     1063.083     -92.910     880.284
  H     1061.842     -91.500     878.512
  H     1061.824     -92.923     882.883
  H     1060.131     -93.438     882.673
  H     1060.511     -91.798     883.286
  H     1063.487     -91.387     875.924
  H     1063.112     -93.091     876.017
  H     1064.571     -92.560     875.215

 3  4  5  6  7  8  9  10  11  12  23  26  30  31  33  0
 6-311+G(2d,p)
 ****
 35  36  37  38 0
 6-311+G(2d,p)
 ****
 1  2  13  14  15  16  17  18  19  20  21  22  24  25  27  28  29 0
 3-21G
 ****
 32  34  39  40  41  42  43  44  45  46  47  48  49 0
 3-21G
 ****


