%nproc=1
%NoSave
%Mem=1900MB
#P OB98/GEN NMR

erre ene a

0 1
  C      -92.572     133.658     273.092
  O      -92.186     134.184     271.838
  H      -92.307     132.597     273.124
  H      -93.653     133.755     273.227
  H      -92.046     134.178     273.897
  P      -92.539     135.725     271.559
  C      -95.122     135.572     271.800
  O      -94.014     135.750     270.927
  C      -96.225     134.804     271.076
  O      -97.286     134.477     272.002
  C      -96.890     135.586     269.952
  O      -96.107     135.609     268.773
  C      -98.185     134.804     269.787
  O      -98.004     133.657     268.940
  C      -98.506     134.379     271.239
  N      -99.582     135.176     271.818
  C     -100.875     134.745     271.532
  O     -101.117     133.759     270.833
  N     -101.887     135.510     272.044
  C     -101.735     136.658     272.764
  O     -102.689     137.341     273.132
  C     -100.347     137.061     273.052
  C      -99.348     136.318     272.564
  O      -91.589     136.097     270.325
  O      -92.340     136.640     272.721
  H      -90.825     136.615     270.639
  H      -97.759     134.003     268.060
  H     -102.831     135.220     271.838
  H     -100.192     137.964     273.628
  H      -98.317     136.604     272.745
  H      -98.815     133.326     271.268
  H      -98.968     135.413     269.328
  H      -97.134     136.603     270.287
  H      -95.801     133.865     270.693
  H      -95.510     136.551     272.105
  H      -94.791     135.030     272.694
  P      -95.580     137.023     268.230
  C      -97.626     138.459     267.411
  O      -96.622     137.504     267.107
  O      -94.292     136.571     267.396
  O      -95.315     138.019     269.307
  H      -94.411     135.715     266.947
  H      -98.216     138.647     266.538
  H      -97.166     139.370     267.734
  H      -98.254     138.081     268.191

 6  7  8  9  10  11  12  13  14  15  16  27  31  32  33  34  35 0
 6-311+G(2d,p)
 ****
 36  37 0
 6-311+G(2d,p)
 ****
 1  2  3  4  5  17  18  19  20  21  22  23  24  25 0
 3-21G
 ****
 26  28  29  30  38  39  40  41  42  43  44  45 0
 3-21G
 ****


