%nproc=1
%NoSave
%Mem=1900MB
#P OB98/GEN NMR

erre ene a

0 1
  C      312.250      49.550    -264.550
  O      313.636      49.815    -264.414
  P      314.214      51.156    -265.077
  C      315.199      51.606    -267.451
  O      314.247      50.904    -266.667
  C      315.057      51.227    -268.930
  O      315.622      49.905    -269.129
  C      313.614      51.187    -269.448
  O      313.648      51.582    -270.821
  C      313.257      49.717    -269.345
  O      312.168      49.352    -270.190
  C      314.590      49.079    -269.709
  N      312.790      44.356    -270.054
  C      312.355      45.520    -270.666
  N      311.333      45.386    -271.543
  N      312.875      46.702    -270.448
  C      313.898      46.672    -269.560
  C      314.392      45.599    -268.858
  C      313.831      44.291    -269.135
  O      314.244      43.227    -268.680
  N      315.376      45.976    -267.979
  C      315.529      47.269    -268.214
  N      314.690      47.722    -269.194
  O      315.755      51.133    -264.657
  O      313.528      52.427    -264.682
  H      312.056      48.385    -270.131
  H      315.903      51.650    -263.841
  H      312.360      43.475    -270.272
  H      316.232      47.916    -267.713
  H      314.754      49.034    -270.794
  H      312.972      49.475    -268.311
  H      310.907      44.501    -271.781
  H      312.926      51.829    -268.884
  H      311.018      46.218    -272.033
  H      315.652      51.932    -269.522
  H      316.209      51.328    -267.119
  H      315.075      52.682    -267.309
  P      312.545      52.630    -271.327
  C      310.266      52.449    -272.547
  O      311.243      51.802    -271.748
  O      313.143      53.116    -272.737
  O      312.320      53.795    -270.417
  H      312.890      54.045    -272.901
  H      309.677      51.682    -273.064
  H      310.720      53.103    -273.290
  H      309.598      53.029    -271.904
  H      312.013      48.628    -264.061
  H      312.001      49.477    -265.588
  H      311.689      50.345    -264.104

 3  4  5  6  7  8  9  10  11  12  23  26  30  31 0
 6-311+G(2d,p)
 ****
 33  35  36  37  38 0
 6-311+G(2d,p)
 ****
 1  2  13  14  15  16  17  18  19  20  21  22  24  25 0
 3-21G
 ****
 27  28  29  32  34  39  40  41  42  43  44  45  46  47  48  49 0
 3-21G
 ****


