%nproc=1
%NoSave
%Mem=1900MB
#P OB98/GEN NMR

erre ene a

0 1
  C      356.703     105.615     123.939
  O      356.069     106.609     124.715
  P      354.799     107.440     124.208
  C      353.200     107.390     126.258
  O      353.496     106.874     124.966
  C      352.771     106.303     127.256
  O      353.905     105.476     127.585
  C      352.307     106.946     128.569
  O      350.984     107.426     128.699
  C      352.746     105.977     129.660
  O      351.686     105.117     130.088
  C      353.855     105.163     128.984
  N      358.669     103.564     129.162
  C      357.692     103.279     128.226
  N      357.980     102.299     127.341
  N      356.533     103.883     128.183
  C      356.347     104.768     129.192
  C      357.246     105.145     130.165
  C      358.538     104.499     130.176
  O      359.400     104.662     131.036
  N      356.687     106.019     131.065
  C      355.440     106.143     130.661
  N      355.172     105.369     129.554
  O      354.712     107.710     122.739
  O      355.030     108.856     124.948
  H      352.076     104.413     130.641
  H      354.696     109.553     124.354
  H      359.516     103.008     129.190
  H      354.682     106.743     131.154
  H      353.642     104.088     129.056
  H      353.084     106.520     130.551
  H      358.804     101.715     127.434
  H      352.929     107.837     128.722
  H      357.234     101.947     126.754
  H      352.029     105.630     126.810
  H      352.411     108.140     126.139
  H      354.081     107.909     126.654
  P      350.551     108.900     129.153
  C      349.077     109.498     127.148
  O      350.283     109.778     127.842
  O      351.892     109.543     129.746
  O      349.460     108.945     130.177
  H      351.671     110.273     130.352
  H      349.142     109.917     126.140
  H      348.235     109.963     127.673
  H      348.910     108.417     127.074
  H      357.524     105.203     124.488
  H      357.064     106.049     123.030
  H      356.002     104.840     123.710

 3  4  5  6  7  8  9  10  11  12  23  26  30  31 0
 6-311+G(2d,p)
 ****
 33  35  36  37  38 0
 6-311+G(2d,p)
 ****
 1  2  13  14  15  16  17  18  19  20  21  22  24  25 0
 3-21G
 ****
 27  28  29  32  34  39  40  41  42  43  44  45  46  47  48  49 0
 3-21G
 ****


