%nproc=1
%NoSave
%Mem=1900MB
#P OB98/GEN NMR

erre ene a

0 1
  C      -15.932       9.831     129.329
  O      -16.729       9.038     128.443
  P      -16.336       9.050     126.886
  C      -16.638      10.839     124.995
  O      -17.017      10.369     126.282
  C      -17.584      11.950     124.546
  O      -18.938      11.450     124.425
  C      -17.670      13.123     125.510
  O      -16.512      13.939     125.439
  C      -18.955      13.791     125.037
  O      -18.701      14.603     123.881
  C      -19.822      12.575     124.649
  N      -20.845      12.261     125.638
  C      -21.921      13.142     125.697
  O      -22.012      14.143     124.987
  N      -22.885      12.844     126.621
  C      -22.865      11.793     127.491
  O      -23.764      11.570     128.291
  C      -21.678      10.926     127.415
  C      -20.737      11.195     126.507
  O      -17.231       7.849     126.332
  O      -14.869       8.909     126.656
  H      -18.090       7.776     126.781
  H      -19.528      15.093     123.700
  H      -23.680      13.463     126.671
  H      -21.616      10.097     128.108
  H      -19.853      10.568     126.437
  H      -20.324      12.761     123.690
  H      -19.396      14.440     125.802
  H      -17.800      12.754     126.535
  H      -17.256      12.297     123.557
  H      -16.677      10.019     124.273
  H      -15.604      11.193     125.039
  P      -15.365      13.668     126.531
  C      -15.332      13.672     129.145
  O      -16.093      13.648     127.958
  O      -14.582      15.065     126.512
  O      -14.513      12.479     126.225
  H      -15.177      15.832     126.507
  H      -15.975      14.001     129.967
  H      -14.487      14.358     129.066
  H      -14.967      12.666     129.366
  H      -16.302       9.731     130.328
  H      -15.982      10.858     129.031
  H      -14.916       9.497     129.290

 3  4  5  6  7  8  9  10  11  12  13  24  28  29  30  31  32 0
 6-311+G(2d,p)
 ****
 33  34 0
 6-311+G(2d,p)
 ****
 1  2  14  15  16  17  18  19  20  21  22  23  25  26  27 0
 3-21G
 ****
 35  36  37  38  39  40  41  42  43  44  45 0
 3-21G
 ****


