%nproc=1
%NoSave
%Mem=1900MB
#P OB98/GEN NMR

erre ene a

0 1
  C      146.436     367.251     -29.176
  O      147.451     367.424     -28.219
  P      148.272     366.166     -27.653
  C      147.018     365.992     -25.413
  O      147.266     365.383     -26.665
  C      145.847     365.302     -24.716
  O      144.701     365.200     -25.599
  C      146.127     363.865     -24.305
  O      147.103     363.655     -23.302
  C      144.727     363.354     -24.022
  O      144.280     363.741     -22.726
  C      143.911     364.076     -25.125
  N      143.533     363.178     -26.212
  C      142.167     363.038     -26.441
  O      141.304     363.623     -25.788
  N      141.816     362.164     -27.438
  C      142.674     361.407     -28.182
  O      142.289     360.609     -29.031
  C      144.102     361.582     -27.881
  C      144.466     362.447     -26.926
  O      149.597     366.480     -27.058
  O      148.340     365.179     -28.915
  H      143.323     363.524     -22.674
  H      147.478     364.896     -29.266
  H      140.833     362.042     -27.611
  H      144.811     361.007     -28.460
  H      145.516     362.589     -26.688
  H      142.992     364.498     -24.695
  H      144.676     362.259     -24.069
  H      146.504     363.322     -25.188
  H      145.540     365.918     -23.865
  H      146.760     367.043     -25.574
  H      147.922     365.959     -24.796
  P      147.809     362.241     -23.038
  C      146.411     361.478     -20.988
  O      146.743     361.263     -22.347
  O      149.183     362.275     -22.458
  O      147.889     361.637     -24.531
  H      148.676     361.068     -24.597
  H      145.708     360.707     -20.678
  H      145.927     362.457     -20.867
  H      147.300     361.424     -20.363
  H      146.013     368.202     -29.423
  H      145.674     366.614     -28.777
  H      146.848     366.805     -30.057

 3  4  5  6  7  8  9  10  11  12  13  23  28  29  30  31  32 0
 6-311+G(2d,p)
 ****
 33  34 0
 6-311+G(2d,p)
 ****
 1  2  14  15  16  17  18  19  20  21  22  24  25  26  27 0
 3-21G
 ****
 35  36  37  38  39  40  41  42  43  44  45 0
 3-21G
 ****


