%nproc=1
%NoSave
%Mem=1900MB
#P OB98/GEN NMR

erre ene a

0 1
  C      822.571    -491.931     152.564
  O      823.036    -491.258     153.719
  H      822.242    -491.185     151.834
  H      821.723    -492.574     152.820
  H      823.372    -492.529     152.124
  P      823.582    -492.181     154.912
  C      825.562    -490.589     155.498
  O      824.351    -491.193     155.922
  C      826.046    -489.575     156.539
  O      825.103    -488.451     156.568
  C      826.114    -490.127     157.971
  O      827.136    -489.412     158.682
  C      824.748    -489.740     158.521
  O      824.710    -489.867     159.926
  C      824.629    -488.342     157.931
  N      821.491    -484.959     160.144
  C      822.806    -485.201     160.310
  N      823.579    -486.113     159.670
  C      822.856    -486.798     158.773
  C      821.506    -486.660     158.488
  C      820.802    -485.687     159.223
  N      819.470    -485.451     159.073
  N      821.120    -487.555     157.496
  C      822.214    -488.217     157.192
  N      823.288    -487.798     157.940
  O      824.760    -493.019     154.221
  O      822.571    -493.065     155.554
  H      824.851    -490.799     160.191
  H      824.420    -493.882     153.922
  H      823.312    -484.580     161.050
  H      822.300    -489.003     156.448
  H      825.277    -487.620     158.438
  H      823.967    -490.395     158.127
  H      826.322    -491.200     158.013
  H      827.011    -489.157     156.222
  H      825.398    -490.094     154.543
  H      826.333    -491.370     155.370
  H      819.034    -484.745     159.652
  H      818.935    -485.997     158.400
  P      828.617    -490.027     158.760
  C      829.763    -487.677     158.765
  O      829.599    -488.930     159.402
  O      829.066    -490.016     157.224
  O      828.713    -491.410     159.329
  H      829.711    -490.733     157.061
  H      830.448    -487.078     159.328
  H      828.817    -487.180     158.708
  H      830.148    -487.826     157.778

 6  7  8  9  10  11  12  13  14  15  25  28  32  33  34  35 0
 6-311+G(2d,p)
 ****
 36  37  40 0
 6-311+G(2d,p)
 ****
 1  2  3  4  5  16  17  18  19  20  21  22  23  24 0
 3-21G
 ****
 26  27  29  30  31  38  39 41  42  43  44  45  46  47  48 0
 3-21G
 ****


