%nproc=1
%NoSave
%Mem=1900MB
#P OB98/GEN NMR

erre ene a

0 1
  C      -45.466     -25.552      69.162
  O      -45.988     -24.606      68.246
  P      -47.120     -25.111      67.223
  C      -45.374     -25.766      65.414
  O      -46.420     -26.201      66.275
  C      -44.920     -26.888      64.479
  O      -44.420     -27.989      65.276
  C      -46.024     -27.426      63.567
  O      -45.435     -27.737      62.304
  C      -46.446     -28.717      64.244
  O      -47.037     -29.629      63.321
  C      -45.115     -29.182      64.856
  N      -45.312     -30.106      65.968
  C      -45.625     -31.429      65.642
  O      -45.799     -31.750      64.467
  N      -45.783     -32.342      66.656
  C      -45.741     -31.943      67.890
  N      -45.900     -32.885      68.858
  C      -45.536     -30.533      68.275
  C      -45.310     -29.683      67.275
  O      -47.316     -23.852      66.257
  O      -48.398     -25.534      67.870
  H      -46.346     -29.897      62.674
  H      -48.238     -23.795      65.943
  H      -45.547     -30.247      69.317
  H      -45.127     -28.633      67.464
  H      -44.494     -29.678      64.097
  H      -47.176     -28.501      65.034
  H      -46.844     -26.716      63.428
  H      -44.081     -26.515      63.879
  H      -46.054     -33.842      68.568
  H      -44.518     -25.461      66.022
  H      -45.883     -32.668      69.845
  H      -45.713     -24.897      64.841
  P      -46.250     -27.335      60.982
  C      -47.312     -29.642      60.608
  O      -47.534     -28.297      60.979
  O      -45.348     -28.002      59.835
  O      -46.486     -25.888      60.709
  H      -45.708     -27.773      58.959
  H      -48.231     -30.209      60.779
  H      -46.511     -30.079      61.209
  H      -47.059     -29.699      59.545
  H      -44.727     -25.083      69.777
  H      -45.020     -26.362      68.623
  H      -46.257     -25.926      69.778

 3  4  5  6  7  8  9  10  11  12  13  21  23  27  28  29  30  32 0
 6-311+G(2d,p)
 ****
 34  35 0
 6-311+G(2d,p)
 ****
 1  2  14  15  16  17  18  19  20  22  24  25  26 0
 3-21G
 ****
 31  33  36  37  38  39  40  41  42  43  44  45  46 0
 3-21G
 ****


