%nproc=1
%NoSave
%Mem=1900MB
#P OB98/GEN NMR

erre ene a

0 1
  C        3.729      64.227    -141.556
  O        2.391      64.413    -141.148
  H        4.352      64.111    -140.666
  H        4.080      65.098    -142.115
  H        3.827      63.328    -142.170
  P        1.243      64.478    -142.264
  C       -0.188      63.245    -140.512
  O       -0.153      64.260    -141.507
  C       -1.598      63.124    -139.942
  O       -1.906      64.269    -139.117
  C       -2.690      63.073    -141.005
  O       -2.733      61.802    -141.622
  C       -3.909      63.429    -140.167
  O       -4.372      62.294    -139.421
  C       -3.329      64.503    -139.217
  N       -3.609      65.869    -139.664
  C       -4.849      66.388    -139.307
  O       -5.682      65.760    -138.659
  N       -5.120      67.650    -139.765
  C       -4.326      68.383    -140.599
  O       -4.701      69.408    -141.159
  C       -2.999      67.816    -140.879
  C       -2.711      66.596    -140.420
  O        1.454      63.614    -143.462
  O        1.194      66.030    -142.662
  H        1.672      66.162    -143.502
  H       -3.610      61.975    -138.900
  H       -6.035      68.018    -139.552
  H       -2.314      68.395    -141.485
  H       -1.750      66.145    -140.640
  H       -3.742      64.384    -138.207
  H       -4.746      63.774    -140.777
  H       -2.529      63.862    -141.748
  H       -1.634      62.230    -139.305
  H        0.506      63.521    -139.710
  H        0.137      62.298    -140.953
  P       -2.306      61.610    -143.151
  C       -0.597      59.708    -142.989
  O       -1.917      60.071    -143.369
  O       -1.288      62.583    -143.650
  O       -3.678      61.753    -143.965
  H       -3.566      62.428    -144.663
  H       -0.446      58.665    -143.176
  H       -0.458      59.907    -141.947
  H        0.107      60.278    -143.558

 6  7  8  9  10  11  12  13  14  15  16  27  31  32  33  34  35 0
 6-311+G(2d,p)
 ****
 36  37 0
 6-311+G(2d,p)
 ****
 1  2  3  4  5  17  18  19  20  21  22  23  24  25 0
 3-21G
 ****
 26  28  29  30  38  39  40  41  42  43  44  45 0
 3-21G
 ****


