%nproc=1
%NoSave
%Mem=1900MB
#P OB98/GEN NMR

erre ene a

0 1
  C     -154.758     384.484    -182.402
  O     -156.049     385.062    -182.456
  P     -156.931     384.783    -183.772
  C     -156.696     385.398    -186.285
  O     -156.278     385.654    -184.950
  C     -155.740     386.030    -187.297
  O     -154.456     385.371    -187.214
  C     -156.221     385.946    -188.750
  O     -155.842     387.156    -189.411
  C     -155.414     384.797    -189.325
  O     -155.286     384.896    -190.740
  C     -154.096     384.940    -188.542
  N     -153.333     383.694    -188.516
  C     -152.553     383.408    -189.641
  O     -152.595     384.143    -190.621
  N     -151.796     382.262    -189.642
  C     -151.888     381.427    -188.653
  N     -151.108     380.310    -188.701
  C     -152.792     381.632    -187.504
  C     -153.463     382.787    -187.492
  O     -158.296     385.556    -183.454
  O     -157.154     383.339    -184.076
  H     -154.827     384.090    -191.062
  H     -159.056     385.101    -183.865
  H     -152.862     380.889    -186.724
  H     -154.133     383.035    -186.680
  H     -153.467     385.720    -188.988
  H     -155.902     383.842    -189.086
  H     -157.306     385.806    -188.830
  H     -155.586     387.078    -187.012
  H     -150.513     380.185    -189.503
  H     -157.688     385.824    -186.441
  H     -151.121     379.606    -187.975
  H     -156.765     384.314    -186.441
  P     -156.728     387.637    -190.656
  C     -157.029     386.814    -193.073
  O     -156.455     386.551    -191.804
  O     -155.883     388.890    -191.183
  O     -158.153     388.016    -190.407
  H     -156.356     389.320    -191.925
  H     -156.650     386.074    -193.786
  H     -156.755     387.811    -193.416
  H     -158.119     386.724    -193.014
  H     -154.287     384.749    -181.479
  H     -154.170     384.847    -183.219
  H     -154.841     383.419    -182.467

 3  4  5  6  7  8  9  10  11  12  13  21  23  27  28  29  30  32 0
 6-311+G(2d,p)
 ****
 34  35 0
 6-311+G(2d,p)
 ****
 1  2  14  15  16  17  18  19  20  22  24  25  26 0
 3-21G
 ****
 31  33  36  37  38  39  40  41  42  43  44  45  46 0
 3-21G
 ****


