%nproc=1
%NoSave
%Mem=1900MB
#P OB98/GEN NMR

erre ene a

0 1
  C      894.786    -899.476      85.270
  O      895.103    -898.106      85.007
  P      896.177    -897.866      83.817
  C      895.287    -895.716      82.644
  O      895.429    -897.136      82.604
  C      893.867    -895.346      83.125
  O      893.543    -895.886      84.415
  C      893.656    -893.806      83.227
  O      893.423    -893.266      81.947
  C      892.428    -893.786      84.168
  O      891.213    -893.926      83.419
  C      892.654    -894.966      85.069
  N      892.157    -892.036      89.186
  C      891.482    -891.976      87.994
  N      890.530    -891.016      87.885
  N      891.723    -892.786      86.999
  C      892.692    -893.676      87.257
  C      893.409    -893.846      88.428
  C      893.113    -892.966      89.535
  O      893.665    -892.976      90.614
  N      894.258    -894.936      88.340
  C      894.183    -895.326      87.063
  N      893.184    -894.646      86.389
  O      896.499    -899.336      83.292
  O      897.422    -897.166      84.299
  H      891.065    -894.866      83.207
  H      897.412    -899.586      83.538
  H      891.920    -891.386      89.927
  H      894.785    -896.076      86.637
  H      891.703    -895.516      85.255
  H      892.376    -892.806      84.652
  H      890.291    -890.366      88.573
  H      894.514    -893.356      83.727
  H      890.010    -890.956      86.973
  H      893.156    -895.766      82.403
  H      895.468    -895.286      81.659
  H      896.045    -895.306      83.345
  P      894.682    -892.716      81.125
  C      894.272    -893.306      78.611
  O      894.870    -893.666      79.808
  O      895.922    -893.066      82.075
  O      894.631    -891.246      80.848
  H      896.506    -892.316      82.150
  H      894.873    -893.676      77.810
  H      894.210    -892.186      78.505
  H      893.283    -893.736      78.583
  H      894.074    -899.530      86.066
  H      895.676    -900.000      85.550
  H      894.372    -899.921      84.390

 3  4  5  6  7  8  9  10  11  12  23  26  30  31 0
 6-311+G(2d,p)
 ****
 33  35  36  37  38 0
 6-311+G(2d,p)
 ****
 1  2  13  14  15  16  17  18  19  20  21  22  24  25 0
 3-21G
 ****
 27  28  29  32  34  39  40  41  42  43  44  45  46  47  48  49 0
 3-21G
 ****


