%nproc=1
%NoSave
%Mem=1900MB
#P OB98/GEN NMR

erre ene a

0 1
  C       22.232      36.289     -98.247
  O       21.154      36.463     -97.331
  P       19.712      35.887     -97.727
  C       17.754      36.592     -99.362
  O       18.996      36.875     -98.755
  C       17.303      37.810    -100.187
  O       17.015      38.926     -99.318
  C       18.355      38.282    -101.188
  O       18.271      37.583    -102.417
  C       18.033      39.759    -101.306
  O       16.889      39.955    -102.158
  C       17.683      40.111     -99.841
  N       18.789      40.471     -98.927
  C       19.334      41.753     -98.971
  O       18.960      42.637     -99.736
  N       20.342      42.008     -98.079
  C       20.740      41.198     -97.055
  O       21.609      41.503     -96.249
  C       20.031      39.917     -96.960
  C       19.118      39.613     -97.885
  O       18.858      36.045     -96.386
  O       19.727      34.471     -98.217
  H       16.572      40.863    -102.009
  H       18.601      35.169     -96.040
  H       20.798      42.907     -98.145
  H       20.280      39.262     -96.135
  H       18.587      38.666     -97.824
  H       16.962      40.936     -99.804
  H       18.853      40.305    -101.768
  H       19.356      38.190    -100.755
  H       16.379      37.546    -100.716
  H       16.998      36.352     -98.610
  H       17.851      35.713    -100.006
  P       19.273      36.371    -102.715
  C       21.556      36.167    -103.868
  O       20.612      37.048    -103.288
  O       18.719      35.247    -103.525
  O       19.728      35.891    -101.252
  H       19.183      35.128    -100.951
  H       22.335      36.760    -104.356
  H       21.076      35.527    -104.616
  H       22.015      35.550    -103.091
  H       23.120      36.725     -97.840
  H       21.993      36.767     -99.174
  H       22.392      35.244     -98.415

 3  4  5  6  7  8  9  10  11  12  13  23  28  29  30  31  32 0
 6-311+G(2d,p)
 ****
 33  34 0
 6-311+G(2d,p)
 ****
 1  2  14  15  16  17  18  19  20  21  22  24  25  26  27 0
 3-21G
 ****
 35  36  37  38  39  40  41  42  43  44  45 0
 3-21G
 ****


