%nproc=1
%NoSave
%Mem=1900MB
#P OB98/GEN NMR

erre ene a

0 1
  C      135.027      34.526      40.745
  O      134.056      34.984      41.669
  P      134.052      36.506      42.160
  C      135.819      36.016      43.952
  O      135.488      36.808      42.819
  C      137.241      36.299      44.435
  O      138.135      36.312      43.288
  C      137.415      37.639      45.164
  O      138.416      37.436      46.167
  C      137.961      38.549      44.072
  O      138.638      39.685      44.588
  C      138.856      37.564      43.325
  N      141.659      40.756      40.476
  C      141.553      40.604      41.817
  N      140.763      39.747      42.498
  C      140.036      38.993      41.654
  C      140.017      39.057      40.270
  C      140.895      39.978      39.669
  N      141.044      40.121      38.309
  N      139.092      38.161      39.763
  C      138.569      37.574      40.818
  N      139.155      37.999      41.981
  O      132.887      36.901      43.006
  O      134.093      37.354      40.800
  H      139.441      39.381      45.054
  H      133.215      37.751      40.632
  H      142.187      41.247      42.415
  H      137.773      36.843      40.801
  H      139.807      37.391      43.845
  H      137.139      38.901      43.443
  H      136.491      38.028      45.610
  H      137.554      35.468      45.079
  H      135.738      34.964      43.665
  H      141.794      40.717      37.989
  H      140.691      39.387      37.698
  H      135.101      36.207      44.758
  P      138.155      37.933      47.672
  C      139.595      40.034      47.411
  O      138.295      39.529      47.656
  O      138.948      37.227      48.721
  O      136.577      37.704      47.867
  H      136.370      37.711      48.823
  H      140.175      39.999      48.337
  H      139.513      41.076      47.077
  H      140.104      39.453      46.641
  H      134.865      33.488      40.542
  H      136.005      34.660      41.159
  H      134.945      35.084      39.836

 3  4  5  6  7  8  9  10  11  12  22  25  29  30  31  32 0
 6-311+G(2d,p)
 ****
 33  36  37 0
 6-311+G(2d,p)
 ****
 1  2  13  14  15  16  17  18  19  20  21  23  24  26 0
 3-21G
 ****
 27  28  34  35  38  39  40  41  42  43  44  45  46  47  48 0
 3-21G
 ****


