%nproc=1
%NoSave
%Mem=1900MB
#P OB98/GEN NMR

erre ene a

0 1
  C      200.182      25.114     -96.877
  O      200.650      23.780     -96.857
  H      200.889      25.725     -97.442
  H      200.120      25.500     -95.857
  H      199.203      25.168     -97.358
  P      199.707      22.691     -96.149
  C      197.877      22.176     -97.913
  O      199.108      21.776     -97.328
  C      197.437      21.178     -98.982
  O      196.137      21.588     -99.504
  C      198.397      21.065    -100.176
  O      198.391      19.703    -100.623
  C      197.717      21.915    -101.238
  O      198.139      21.583    -102.558
  C      196.253      21.597    -100.940
  N      194.284      23.116    -105.314
  C      195.133      22.064    -105.030
  N      195.521      21.295    -106.071
  N      195.566      21.789    -103.829
  C      195.073      22.618    -102.878
  C      194.234      23.696    -103.030
  C      193.782      24.007    -104.371
  O      193.046      24.936    -104.687
  N      193.987      24.303    -101.823
  C      194.675      23.594    -100.947
  N      195.350      22.563    -101.539
  O      198.454      23.568     -95.678
  O      200.328      21.947     -95.016
  H      199.100      21.765    -102.621
  H      198.577      23.865     -94.756
  H      193.992      23.291    -106.260
  H      194.722      23.785     -99.884
  H      195.956      20.610    -101.315
  H      197.931      22.977    -101.067
  H      195.191      21.418    -107.015
  H      199.422      21.382     -99.963
  H      196.107      20.493    -105.876
  H      197.290      20.201     -98.507
  H      198.007      23.161     -98.374
  H      197.113      22.249     -97.131
  P      199.795      19.024    -100.985
  C      200.373      17.966     -98.682
  O      199.993      17.751    -100.032
  O      200.859      20.071    -100.400
  O      200.004      18.784    -102.444
  H      201.688      20.018    -100.910
  H      200.463      17.024     -98.183
  H      199.629      18.560     -98.192
  H      201.313      18.477     -98.653

 6  7  8  9  10  11  12  13  14  15  26  29  33  34 0
 6-311+G(2d,p)
 ****
 36  38  39  40  41 0
 6-311+G(2d,p)
 ****
 1  2  3  4  5  16  17  18  19  20  21  22  23  24  25 0
 3-21G
 ****
 27  28  30  31  32  35  37  42  43  44  45  46  47 0
 3-21G
 ****
 48  49 0
 3-21G
 ****


