%nproc=1
%NoSave
%Mem=1900MB
#P OB98/GEN NMR

erre ene a

0 1
  C     -515.559     803.086    -811.165
  O     -516.305     803.460    -812.302
  P     -517.851     803.086    -812.462
  C     -518.743     805.183    -811.260
  O     -518.572     803.760    -811.194
  C     -520.235     805.513    -811.085
  O     -520.712     804.855    -809.887
  C     -520.540     807.005    -810.858
  O     -520.644     807.762    -812.056
  C     -521.907     806.917    -810.184
  O     -522.929     806.662    -811.183
  C     -521.744     805.680    -809.288
  N     -523.493     807.078    -804.695
  C     -524.127     806.774    -805.851
  N     -523.587     806.426    -807.034
  C     -522.254     806.366    -806.945
  C     -521.462     806.654    -805.836
  C     -522.152     807.031    -804.669
  N     -521.495     807.323    -803.481
  N     -520.137     806.505    -806.145
  C     -520.112     806.120    -807.410
  N     -521.366     806.028    -807.932
  O     -518.113     801.629    -812.640
  O     -518.363     803.968    -813.690
  H     -522.977     807.455    -811.753
  H     -519.209     803.618    -814.031
  H     -525.224     806.812    -805.817
  H     -519.205     805.934    -807.965
  H     -522.665     805.068    -809.244
  H     -522.203     807.821    -809.672
  H     -519.833     807.465    -810.157
  H     -520.788     805.133    -811.934
  H     -518.423     805.519    -812.243
  H     -522.070     807.438    -802.670
  H     -520.516     807.108    -803.418
  H     -518.135     805.664    -810.496
  P     -519.854     809.166    -812.127
  C     -519.021     808.549    -814.530
  O     -518.686     808.910    -813.205
  O     -519.384     809.691    -810.810
  O     -520.876     810.124    -812.883
  H     -521.049     809.898    -813.813
  H     -518.127     808.577    -815.159
  H     -519.773     809.220    -814.958
  H     -519.407     807.517    -814.559
  H     -514.553     803.437    -811.267
  H     -515.557     802.020    -811.074
  H     -516.001     803.517    -810.291

 3  4  5  6  7  8  9  10  11  12  22  25  29  30  31  32 0
 6-311+G(2d,p)
 ****
 33  36  37 0
 6-311+G(2d,p)
 ****
 1  2  13  14  15  16  17  18  19  20  21  23  24  26 0
 3-21G
 ****
 27  28  34  35  38  39  40  41  42  43  44  45  46  47  48 0
 3-21G
 ****


