%nproc=1
%NoSave
%Mem=1900MB
#P OB98/GEN NMR

erre ene a

0 1
  C      -39.878      29.235      71.474
  O      -39.141      29.829      70.420
  P      -37.860      30.719      70.807
  C      -36.396      28.709      71.583
  O      -37.063      29.908      71.939
  C      -35.019      28.643      72.248
  O      -34.462      27.321      72.025
  C      -34.001      29.659      71.719
  O      -33.147      30.005      72.816
  C      -33.217      28.858      70.697
  O      -31.937      29.418      70.423
  C      -33.184      27.492      71.373
  N      -30.609      23.251      70.396
  C      -30.481      24.143      71.446
  N      -29.578      23.821      72.397
  N      -31.175      25.245      71.554
  C      -32.050      25.423      70.535
  C      -32.240      24.636      69.424
  C      -31.494      23.402      69.336
  O      -31.637      22.542      68.471
  N      -33.152      25.190      68.566
  C      -33.571      26.269      69.196
  N      -32.966      26.427      70.414
  O      -38.507      31.944      71.602
  O      -37.009      31.162      69.660
  H      -31.401      29.352      71.239
  H      -38.673      32.702      71.008
  H      -30.059      22.410      70.377
  H      -34.307      26.963      68.826
  H      -32.398      27.419      72.135
  H      -33.774      28.817      69.753
  H      -29.032      22.974      72.393
  H      -34.459      30.556      71.293
  H      -29.488      24.441      73.194
  H      -35.152      28.762      73.329
  H      -36.260      28.688      70.497
  H      -37.008      27.848      71.871
  P      -32.273      31.342      72.692
  C      -34.594      32.486      72.619
  O      -33.245      32.513      72.200
  O      -31.363      31.054      71.403
  O      -31.423      31.648      73.882
  H      -30.501      31.497      71.505
  H      -35.003      33.497      72.555
  H      -34.690      32.132      73.649
  H      -35.167      31.832      71.957
  H      -40.696      28.677      71.067
  H      -40.255      30.000      72.121
  H      -39.240      28.580      72.030

 3  4  5  6  7  8  9  10  11  12  23  26  30  31 0
 6-311+G(2d,p)
 ****
 33  35  36  37  38 0
 6-311+G(2d,p)
 ****
 1  2  13  14  15  16  17  18  19  20  21  22  24  25 0
 3-21G
 ****
 27  28  29  32  34  39  40  41  42  43  44  45  46  47  48  49 0
 3-21G
 ****


