%nproc=1
%NoSave
%Mem=1900MB
#P OB98/GEN NMR

erre ene a

0 1
  C     -193.682    -174.722      37.097
  O     -193.898    -173.463      36.451
  P     -193.002    -172.219      36.928
  C     -191.040    -171.914      35.256
  O     -192.353    -171.526      35.636
  C     -190.732    -171.510      33.808
  O     -191.811    -171.902      32.917
  C     -190.535    -169.999      33.625
  O     -189.613    -169.793      32.547
  C     -191.912    -169.541      33.186
  O     -191.860    -168.259      32.550
  C     -192.317    -170.705      32.286
  N     -196.223    -168.870      29.676
  C     -194.883    -168.528      29.637
  N     -194.534    -167.582      28.739
  N     -193.975    -169.069      30.403
  C     -194.470    -170.025      31.226
  C     -195.773    -170.447      31.365
  C     -196.774    -169.823      30.528
  O     -197.975    -170.074      30.530
  N     -195.884    -171.424      32.321
  C     -194.648    -171.587      32.765
  N     -193.753    -170.790      32.103
  O     -191.753    -172.930      37.636
  O     -193.704    -171.300      37.872
  H     -191.551    -168.405      31.627
  H     -191.811    -172.809      38.603
  H     -196.888    -168.413      29.073
  H     -194.354    -172.264      33.551
  H     -191.873    -170.635      31.282
  H     -192.574    -169.462      34.054
  H     -195.175    -167.160      28.085
  H     -190.174    -169.470      34.513
  H     -193.552    -167.342      28.657
  H     -189.831    -172.040      33.481
  H     -190.924    -172.999      35.362
  H     -190.323    -171.469      35.955
  P     -188.159    -169.241      32.928
  C     -187.100    -171.613      32.956
  O     -187.114    -170.323      32.374
  O     -188.088    -169.431      34.517
  O     -187.899    -167.828      32.524
  H     -187.456    -168.803      34.907
  H     -187.597    -172.314      32.281
  H     -187.599    -171.628      33.929
  H     -186.058    -171.925      33.093
  H     -194.343    -175.454      36.682
  H     -193.873    -174.623      38.145
  H     -192.669    -175.031      36.947

 3  4  5  6  7  8  9  10  11  12  23  26  30  31 0
 6-311+G(2d,p)
 ****
 33  35  36  37  38 0
 6-311+G(2d,p)
 ****
 1  2  13  14  15  16  17  18  19  20  21  22  24  25 0
 3-21G
 ****
 27  28  29  32  34  39  40  41  42  43  44  45  46  47  48  49 0
 3-21G
 ****


