%nproc=1
%NoSave
%Mem=1900MB
#P OB98/GEN NMR

erre ene a

0 1
  C       75.830      19.139     276.008
  O       74.843      18.539     276.826
  H       75.619      18.889     274.966
  H       76.823      18.758     276.265
  H       75.808      20.226     276.119
  P       74.937      18.756     278.410
  C       75.100      16.194     278.692
  O       75.679      17.457     278.988
  C       76.191      15.148     278.492
  O       77.085      15.549     277.433
  C       77.064      14.917     279.729
  O       76.409      14.049     280.641
  C       78.292      14.297     279.085
  O       78.025      12.920     278.754
  C       78.428      15.136     277.803
  N       83.154      16.974     277.746
  C       82.706      15.674     277.624
  N       83.660      14.723     277.513
  N       81.442      15.335     277.632
  C       80.611      16.385     277.818
  C       80.936      17.716     277.970
  C       82.329      18.087     277.904
  O       82.769      19.230     277.990
  N       79.821      18.479     278.207
  C       78.824      17.619     278.160
  N       79.250      16.329     277.943
  O       73.653      19.081     279.113
  O       76.028      19.914     278.583
  H       78.789      12.602     278.238
  H       75.606      20.793     278.614
  H       84.142      17.172     277.752
  H       77.776      17.876     278.278
  H       78.839      14.558     276.970
  H       79.170      14.315     279.734
  H       84.618      14.893     277.786
  H       77.354      15.861     280.201
  H       83.354      13.757     277.473
  H       75.710      14.214     278.174
  H       74.506      16.308     277.778
  H       74.434      15.879     279.505
  P       75.927      14.571     282.081
  C       77.185      12.587     283.151
  O       77.007      13.994     283.117
  O       74.510      14.259     282.422
  O       76.255      16.135     282.071
  H       75.526      16.694     281.711
  H       77.928      12.339     283.880
  H       77.501      12.244     282.188
  H       76.260      12.117     283.411

 6  7  8  9  10  11  12  13  14  15  26  29  33  34 0
 6-311+G(2d,p)
 ****
 36  38  39  40  41 0
 6-311+G(2d,p)
 ****
 1  2  3  4  5  16  17  18  19  20  21  22  23  24  25 0
 3-21G
 ****
 27  28  30  31  32  35  37  42  43  44  45  46  47 0
 3-21G
 ****
 48  49 0
 3-21G
 ****


