%nproc=1
%NoSave
%Mem=1900MB
#P OB98/GEN NMR

erre ene a

0 1
  C     -515.455    -264.099    -331.444
  O     -516.642    -263.567    -330.889
  H     -515.571    -265.171    -331.625
  H     -515.258    -263.602    -332.399
  H     -514.609    -263.918    -330.775
  P     -517.104    -264.156    -329.470
  C     -517.305    -261.852    -328.281
  O     -517.979    -263.000    -328.780
  C     -517.939    -260.592    -328.858
  O     -517.630    -260.483    -330.265
  C     -519.460    -260.556    -328.764
  O     -519.906    -260.149    -327.485
  C     -519.778    -259.508    -329.817
  O     -519.508    -258.194    -329.294
  C     -518.772    -259.858    -330.923
  N     -521.278    -260.199    -335.374
  C     -520.924    -259.143    -334.616
  N     -520.260    -259.132    -333.440
  C     -519.958    -260.384    -333.058
  C     -520.263    -261.565    -333.720
  C     -520.949    -261.440    -334.938
  N     -521.330    -262.520    -335.705
  N     -519.826    -262.655    -332.998
  C     -519.237    -262.141    -331.935
  N     -519.301    -260.773    -331.921
  O     -515.755    -264.156    -328.603
  O     -517.760    -265.497    -329.508
  H     -519.829    -257.558    -329.962
  H     -515.839    -264.780    -327.857
  H     -521.209    -258.167    -335.006
  H     -518.751    -262.713    -331.153
  H     -518.405    -258.972    -331.452
  H     -520.824    -259.523    -330.134
  H     -519.908    -261.513    -329.063
  H     -517.494    -259.725    -328.353
  H     -516.252    -261.902    -328.580
  H     -521.972    -262.336    -336.456
  H     -521.227    -263.447    -335.315
  H     -517.369    -261.845    -327.189
  P     -521.028    -261.048    -326.771
  C     -518.922    -262.110    -325.670
  O     -520.301    -261.766    -325.540
  O     -521.253    -262.244    -327.814
  O     -522.295    -260.330    -326.451
  H     -522.150    -262.616    -327.730
  H     -518.585    -262.579    -324.769
  H     -518.349    -261.224    -325.847
  H     -518.799    -262.785    -326.491

 6  7  8  9  10  11  12  13  14  15  25  28  32  33  34  35 0
 6-311+G(2d,p)
 ****
 36  39  40 0
 6-311+G(2d,p)
 ****
 1  2  3  4  5  16  17  18  19  20  21  22  23  24 0
 3-21G
 ****
 26  27  29  30  31  37  38  41  42  43  44  45  46  47 0
 3-21G
 ****
 48 0
 3-21G
 ****


