%nproc=1
%NoSave
%Mem=1900MB
#P OB98/GEN NMR

erre ene a

0 1
  C       83.385     190.107       4.198
  O       84.677     190.710       4.299
  P       85.229     191.460       2.993
  C       86.805     193.269       3.973
  O       86.700     192.019       3.306
  C       86.397     193.166       5.448
  O       87.286     192.274       6.171
  C       86.409     194.509       6.179
  O       85.358     194.478       7.149
  C       87.740     194.492       6.905
  O       87.744     195.406       7.999
  C       87.835     193.006       7.288
  N       89.197     192.578       7.598
  C       89.768     193.076       8.771
  O       89.156     193.896       9.460
  N       91.031     192.671       9.118
  C       91.690     191.877       8.333
  N       92.940     191.514       8.730
  C       91.151     191.373       7.055
  C       89.911     191.758       6.758
  O       84.328     192.781       2.915
  O       85.112     190.648       1.743
  H       86.951     195.229       8.548
  H       83.964     192.884       2.017
  H       91.745     190.730       6.421
  H       89.429     191.439       5.845
  H       87.210     192.793       8.165
  H       88.549     194.764       6.219
  H       86.275     195.369       5.517
  H       85.392     192.730       5.492
  H       93.272     191.874       9.616
  H       86.169     194.006       3.478
  H       93.541     190.904       8.196
  H       87.830     193.638       3.875
  P       84.105     195.455       6.943
  C       82.329     193.754       7.681
  O       83.012     194.949       8.004
  O       83.489     194.903       5.567
  O       84.351     196.924       6.876
  H       82.747     195.468       5.289
  H       81.714     193.461       8.536
  H       83.041     192.951       7.468
  H       81.676     193.916       6.819
  H       83.134     189.643       5.129
  H       83.395     189.369       3.423
  H       82.658     190.857       3.966

 3  4  5  6  7  8  9  10  11  12  13  21  23  27  28  29  30  32 0
 6-311+G(2d,p)
 ****
 34  35 0
 6-311+G(2d,p)
 ****
 1  2  14  15  16  17  18  19  20  22  24  25  26 0
 3-21G
 ****
 31  33  36  37  38  39  40  41  42  43  44  45  46 0
 3-21G
 ****


