%nproc=1
%NoSave
%Mem=1900MB
#P OB98/GEN NMR

erre ene a

0 1
  C      782.246     -29.736     260.772
  O      781.630     -28.562     261.254
  H      782.908     -30.128     261.554
  H      782.848     -29.514     259.889
  H      781.499     -30.499     260.533
  P      780.485     -27.875     260.369
  C      781.948     -25.860     259.701
  O      781.221     -26.998     259.248
  C      781.674     -24.669     258.783
  O      782.243     -24.915     257.479
  C      780.195     -24.403     258.549
  O      779.593     -23.787     259.666
  C      780.260     -23.541     257.296
  O      780.549     -22.178     257.616
  C      781.438     -24.186     256.526
  N      780.976     -25.056     255.442
  C      780.525     -24.420     254.291
  O      780.511     -23.198     254.148
  N      780.030     -25.245     253.312
  C      779.819     -26.585     253.436
  O      779.147     -27.238     252.641
  C      780.373     -27.211     254.643
  C      780.909     -26.424     255.589
  O      779.419     -27.160     261.130
  O      779.882     -29.095     259.522
  H      779.035     -29.378     259.924
  H      780.617     -21.711     256.763
  H      779.660     -24.784     252.494
  H      780.288     -28.285     254.750
  H      781.292     -26.858     256.508
  H      782.082     -23.405     256.095
  H      779.319     -23.566     256.749
  H      779.685     -25.342     258.308
  H      782.169     -23.785     259.213
  H      783.019     -26.097     259.682
  H      781.652     -25.633     260.730
  P      778.141     -24.255     260.165
  C      776.653     -22.629     258.840
  O      777.090     -23.975     258.982
  O      777.732     -23.739     261.501
  O      778.237     -25.855     260.175
  H      777.916     -26.187     261.032
  H      775.961     -22.563     258.027
  H      777.495     -21.999     258.643
  H      776.174     -22.312     259.743

 6  7  8  9  10  11  12  13  14  15  16  27  31  32  33  34  35 0
 6-311+G(2d,p)
 ****
 36  37 0
 6-311+G(2d,p)
 ****
 1  2  3  4  5  17  18  19  20  21  22  23  24  25 0
 3-21G
 ****
 26  28  29  30  38  39  40  41  42  43  44  45 0
 3-21G
 ****


