%nproc=1
%NoSave
%Mem=1900MB
#P OB98/GEN NMR

erre ene a

0 1
  C      161.663     630.601     620.406
  O      162.094     629.259     620.261
  H      162.007     631.170     619.533
  H      162.100     631.045     621.301
  H      160.574     630.647     620.451
  P      161.788     628.223     621.445
  C      159.618     627.461     620.260
  O      160.206     627.986     621.446
  C      158.889     626.152     620.554
  O      157.736     626.403     621.391
  C      158.355     625.436     619.317
  O      159.396     624.801     618.616
  C      157.331     624.505     619.954
  O      157.971     623.365     620.540
  C      156.722     625.413     621.043
  N      155.477     626.075     620.645
  C      154.346     625.260     620.593
  O      154.430     624.057     620.859
  N      153.149     625.823     620.209
  C      153.084     627.092     619.964
  N      151.868     627.605     619.593
  C      154.257     627.998     620.045
  C      155.406     627.427     620.374
  O      162.362     628.569     622.782
  O      162.370     626.831     620.900
  H      158.461     623.713     621.321
  H      163.280     626.695     621.211
  H      154.154     629.060     619.835
  H      156.310     628.015     620.462
  H      156.527     624.839     621.965
  H      156.596     624.134     619.225
  H      157.820     626.147     618.668
  H      159.565     625.498     621.128
  H      151.089     626.946     619.575
  H      160.443     627.280     619.546
  H      151.658     628.589     619.538
  H      158.934     628.182     619.813
  P      159.288     624.474     617.049
  C      161.207     626.115     616.553
  O      159.859     625.786     616.289
  O      157.938     624.029     616.588
  O      160.453     623.399     616.801
  H      160.162     622.506     617.125
  H      161.475     626.992     616.002
  H      161.837     625.302     616.258
  H      161.331     626.300     617.600

 6  7  8  9  10  11  12  13  14  15  16  26  30  31  32  33  35 0
 6-311+G(2d,p)
 ****
 37  38 0
 6-311+G(2d,p)
 ****
 1  2  3  4  5  17  18  19  20  21  22  23  24  25 0
 3-21G
 ****
 27  28  29  34  36  39  40  41  42  43  44  45  46 0
 3-21G
 ****


