%nproc=1
%NoSave
%Mem=1900MB
#P OB98/GEN NMR

erre ene a

0 1
  C      728.410     365.888     -34.619
  O      728.019     365.448     -33.331
  P      726.762     364.475     -33.131
  C      725.436     365.679     -31.280
  O      726.320     364.608     -31.591
  C      725.517     366.018     -29.784
  O      724.743     365.020     -29.040
  C      726.956     366.001     -29.239
  O      727.342     367.188     -28.541
  C      726.997     364.720     -28.421
  O      728.024     364.690     -27.447
  C      725.555     364.642     -27.911
  N      725.217     363.305     -27.402
  C      725.843     362.897     -26.232
  O      726.647     363.572     -25.598
  N      725.559     361.620     -25.823
  C      724.834     360.693     -26.507
  O      724.705     359.543     -26.131
  C      724.222     361.178     -27.765
  C      724.411     362.453     -28.137
  O      726.951     363.072     -33.597
  O      725.577     365.253     -33.885
  H      727.877     363.903     -26.885
  H      725.389     366.142     -33.537
  H      726.014     361.306     -24.976
  H      723.649     360.472     -28.340
  H      723.981     362.830     -29.052
  H      725.370     365.364     -27.115
  H      727.185     363.887     -29.115
  H      727.690     365.929     -30.064
  H      725.047     366.994     -29.637
  H      724.411     365.376     -31.524
  H      725.681     366.550     -31.897
  P      728.240     368.366     -29.147
  C      730.320     368.116     -27.611
  O      729.209     368.897     -27.996
  O      727.483     369.428     -29.881
  O      729.240     367.603     -30.144
  H      729.486     368.199     -30.873
  H      730.556     368.330     -26.561
  H      731.183     368.397     -28.221
  H      730.124     367.053     -27.731
  H      729.265     366.525     -34.534
  H      727.605     366.430     -35.070
  H      728.655     365.042     -35.226

 3  4  5  6  7  8  9  10  11  12  13  23  28  29  30  31  32 0
 6-311+G(2d,p)
 ****
 33  34 0
 6-311+G(2d,p)
 ****
 1  2  14  15  16  17  18  19  20  21  22  24  25  26  27 0
 3-21G
 ****
 35  36  37  38  39  40  41  42  43  44  45 0
 3-21G
 ****


