%nproc=1
%NoSave
%Mem=1900MB
#P OB98/GEN NMR

erre ene a

0 1
  C      -72.966    1057.691    -688.088
  O      -71.709    1057.228    -687.609
  P      -70.659    1058.337    -687.076
  C      -69.021    1057.684    -688.975
  O      -69.770    1058.718    -688.352
  C      -68.122    1058.241    -690.086
  O      -68.952    1058.756    -691.165
  C      -67.255    1059.423    -689.667
  O      -66.092    1059.008    -688.984
  C      -66.925    1060.046    -691.010
  O      -65.829    1059.337    -691.612
  C      -68.223    1059.817    -691.811
  N      -71.228    1062.575    -694.821
  C      -70.524    1061.420    -695.101
  N      -70.645    1060.905    -696.339
  N      -69.746    1060.824    -694.220
  C      -69.744    1061.408    -693.003
  C      -70.394    1062.569    -692.613
  C      -71.214    1063.238    -693.607
  O      -71.805    1064.313    -693.424
  N      -70.158    1062.855    -691.297
  C      -69.399    1061.854    -690.885
  N      -69.095    1060.975    -691.886
  O      -69.648    1057.473    -686.179
  O      -71.254    1059.467    -686.326
  H      -65.105    1059.305    -690.956
  H      -69.234    1058.055    -685.495
  H      -71.811    1062.978    -695.512
  H      -69.036    1061.747    -689.860
  H      -67.993    1059.481    -692.841
  H      -66.618    1061.096    -690.928
  H      -71.330    1061.271    -697.024
  H      -67.841    1060.152    -689.063
  H      -70.170    1060.033    -696.530
  H      -67.510    1057.455    -690.489
  H      -69.691    1056.944    -689.419
  H      -68.405    1057.179    -688.222
  P      -65.296    1060.144    -688.169
  C      -63.277    1060.006    -689.797
  O      -64.278    1060.821    -689.236
  O      -64.320    1059.299    -687.214
  O      -66.163    1061.068    -687.400
  H      -64.090    1059.820    -686.401
  H      -63.622    1058.973    -689.980
  H      -62.405    1059.993    -689.158
  H      -62.980    1060.433    -690.784
  H      -73.556    1056.857    -688.406
  H      -72.811    1058.354    -688.914
  H      -73.477    1058.211    -687.305

 3  4  5  6  7  8  9  10  11  12  23  26  30  31  33  0
 6-311+G(2d,p)
 ****
 35  36  37  38 0
 6-311+G(2d,p)
 ****
 1  2  13  14  15  16  17  18  19  20  21  22  24  25  27  28  29 0
 3-21G
 ****
 32  34  39  40  41  42  43  44  45  46  47  48  49 0
 3-21G
 ****


