%nproc=1
%NoSave
%Mem=1900MB
#P OB98/GEN NMR

erre ene a

0 1
  C      -58.149      76.609      25.768
  O      -59.284      77.180      26.393
  H      -58.399      75.595      25.443
  H      -57.309      76.550      26.465
  H      -57.862      77.199      24.894
  P      -59.122      78.611      27.095
  C      -61.201      79.685      25.990
  O      -59.780      79.663      26.083
  C      -61.627      79.856      24.534
  O      -61.309      78.670      23.778
  C      -63.125      80.064      24.369
  O      -63.494      81.381      24.725
  C      -63.304      79.707      22.907
  O      -62.925      80.795      22.054
  C      -62.323      78.521      22.757
  N      -62.984      77.224      22.860
  C      -63.577      76.743      21.687
  O      -63.520      77.396      20.647
  N      -64.238      75.541      21.736
  C      -64.289      74.872      22.845
  N      -64.960      73.690      22.825
  C      -63.666      75.338      24.099
  C      -63.041      76.512      24.036
  O      -57.749      78.981      27.565
  O      -60.176      78.559      28.300
  H      -63.254      80.562      21.163
  H      -59.756      78.203      29.105
  H      -63.729      74.744      24.998
  H      -62.553      76.926      24.912
  H      -61.807      78.568      21.789
  H      -64.338      79.453      22.680
  H      -63.676      79.332      24.967
  H      -61.061      80.691      24.104
  H      -65.381      73.414      21.944
  H      -61.552      80.530      26.589
  H      -64.990      73.046      23.600
  H      -61.629      78.764      26.404
  P      -64.295      81.664      26.086
  C      -63.749      84.142      26.542
  O      -63.443      82.786      26.857
  O      -64.636      80.454      26.889
  O      -65.582      82.477      25.585
  H      -66.232      81.882      25.138
  H      -63.121      84.792      27.115
  H      -64.774      84.340      26.776
  H      -63.582      84.312      25.499

 6  7  8  9  10  11  12  13  14  15  16  26  30  31  32  33  35 0
 6-311+G(2d,p)
 ****
 37  38 0
 6-311+G(2d,p)
 ****
 1  2  3  4  5  17  18  19  20  21  22  23  24  25 0
 3-21G
 ****
 27  28  29  34  36  39  40  41  42  43  44  45  46 0
 3-21G
 ****


