%nproc=1
%NoSave
%Mem=1900MB
#P OB98/GEN NMR

erre ene a

0 1
  C      298.747     791.909     985.744
  O      297.786     792.557     986.576
  P      296.274     792.045     986.494
  C      294.325     791.756     988.222
  O      295.710     791.989     987.989
  C      294.102     791.179     989.623
  O      294.477     789.790     989.671
  C      294.966     791.867     990.706
  O      294.404     793.100     991.088
  C      294.937     790.807     991.811
  O      293.766     790.908     992.605
  C      294.950     789.499     991.001
  N      296.257     788.857     990.984
  C      296.274     787.485     991.200
  O      295.244     786.844     991.421
  N      297.507     786.880     991.207
  C      298.707     787.497     991.037
  O      299.772     786.916     991.112
  C      298.634     788.961     990.850
  C      297.436     789.569     990.834
  O      296.399     790.497     986.078
  O      295.403     792.800     985.549
  H      293.057     790.461     992.122
  H      295.647     790.246     985.492
  H      297.520     785.878     991.316
  H      299.561     789.506     990.724
  H      297.376     790.644     990.685
  H      294.238     788.798     991.416
  H      295.798     790.920     992.482
  H      295.987     791.994     990.328
  H      293.032     791.263     989.855
  H      293.948     791.043     987.469
  H      293.790     792.704     988.108
  P      295.322     794.064     991.991
  C      295.500     796.671     992.231
  O      294.908     795.561     991.560
  O      296.764     793.814     991.304
  O      295.264     793.748     993.443
  H      296.694     793.658     990.348
  H      296.542     796.455     992.484
  H      294.922     796.891     993.139
  H      295.458     797.539     991.552
  H      299.709     792.350     985.901
  H      298.465     792.023     984.718
  H      298.787     790.868     985.989

 3  4  5  6  7  8  9  10  11  12  13  23  28  29  30  31  32 0
 6-311+G(2d,p)
 ****
 33  34 0
 6-311+G(2d,p)
 ****
 1  2  14  15  16  17  18  19  20  21  22  24  25  26 0
 3-21G
 ****
 27  35  36  37  38  39  40  41  42  43  44  45 0
 3-21G
 ****


