%nproc=1
%NoSave
%Mem=1900MB
#P OB98/GEN NMR

erre ene a

0 1
  C      138.305    -204.459      39.106
  O      138.238    -204.130      40.481
  H      139.226    -205.013      38.909
  H      137.453    -205.093      38.854
  H      138.272    -203.557      38.489
  P      139.211    -202.969      41.009
  C      138.753    -200.767      42.307
  O      138.359    -202.109      42.067
  C      138.196    -200.272      43.640
  O      136.788    -199.941      43.455
  C      138.289    -201.297      44.784
  O      138.611    -200.597      45.990
  C      136.867    -201.831      44.885
  O      136.569    -202.337      46.183
  C      136.055    -200.601      44.503
  N      131.215    -201.036      45.997
  C      132.269    -200.391      46.537
  N      133.519    -200.280      46.043
  C      133.610    -200.867      44.834
  C      132.615    -201.555      44.153
  C      131.370    -201.649      44.800
  N      130.308    -202.362      44.291
  N      133.113    -202.063      42.969
  C      134.382    -201.707      42.946
  N      134.726    -200.986      44.054
  O      139.312    -202.001      39.733
  O      140.553    -203.420      41.477
  H      137.018    -203.199      46.295
  H      140.037    -202.298      39.155
  H      132.093    -199.909      47.493
  H      135.096    -201.972      42.178
  H      135.933    -199.896      45.334
  H      136.731    -202.642      44.160
  H      139.023    -202.087      44.608
  H      138.708    -199.343      43.909
  H      138.366    -200.135      41.501
  H      129.487    -202.460      44.871
  H      130.442    -202.909      43.456
  H      139.847    -200.702      42.308
  P      139.955    -201.023      46.756
  C      141.161    -200.261      48.935
  O      139.935    -200.373      48.220
  O      141.088    -200.188      45.994
  O      140.230    -202.494      46.719
  H      141.923    -200.692      45.981
  H      140.978    -199.810      49.888
  H      141.844    -199.654      48.378
  H      141.582    -201.235      49.076

 6  7  8  9  10  11  12  13  14  15  25  28  32  33  34  35 0
 6-311+G(2d,p)
 ****
 36  39  40 0
 6-311+G(2d,p)
 ****
 1  2  3  4  5  16  17  18  19  20  21  22  23  24 0
 3-21G
 ****
 26  27  29  30  31  37  38  41  42  43  44  45  46  47 0
 3-21G
 ****
 48 0
 3-21G
 ****


