%nproc=1
%NoSave
%Mem=1900MB
#P OB98/GEN NMR

erre ene a

0 1
  C       -0.176     216.661     -29.200
  O        0.004     215.859     -28.028
  P        0.992     216.414     -26.889
  C        2.960     214.823     -27.478
  O        2.511     216.167     -27.358
  C        4.455     214.705     -27.149
  O        4.907     213.322     -27.296
  C        5.351     215.557     -28.057
  O        6.507     215.945     -27.306
  C        5.773     214.576     -29.131
  O        6.934     215.021     -29.829
  C        5.958     213.308     -28.293
  N        8.397     210.506     -31.712
  C        8.745     211.720     -31.135
  N        9.936     212.242     -31.506
  N        7.994     212.360     -30.280
  C        6.843     211.692     -29.975
  C        6.385     210.506     -30.489
  C        7.214     209.819     -31.451
  O        6.953     208.751     -32.002
  N        5.165     210.167     -29.951
  C        4.880     211.166     -29.128
  N        5.888     212.103     -29.086
  O        0.790     215.362     -25.696
  O        0.674     217.804     -26.443
  H        7.194     214.309     -30.456
  H        0.292     215.777     -24.970
  H        9.011     210.065     -32.377
  H        3.980     211.257     -28.551
  H        6.919     213.289     -27.768
  H        4.959     214.448     -29.859
  H       10.582     211.775     -32.122
  H        4.869     216.455     -28.462
  H       10.235     213.106     -31.068
  H        4.608     214.987     -26.105
  H        2.776     214.453     -28.491
  H        2.353     214.189     -26.819
  P        6.398     217.291     -26.440
  C        8.510     218.370     -27.508
  O        7.107     218.442     -27.305
  O        7.421     217.045     -25.230
  O        5.022     217.610     -25.956
  H        7.166     217.584     -24.460
  H        8.707     218.013     -28.528
  H        8.995     217.699     -26.790
  H        8.931     219.372     -27.394
  H       -0.855     216.171     -29.867
  H        0.767     216.797     -29.687
  H       -0.575     217.614     -28.922

 3  4  5  6  7  8  9  10  11  12  23  26  30  31 0
 6-311+G(2d,p)
 ****
 33  35  36  37  38 0
 6-311+G(2d,p)
 ****
 1  2  13  14  15  16  17  18  19  20  21  22  24  25 0
 3-21G
 ****
 27  28  29  32  34  39  40  41  42  43  44  45  46  47  48  49 0
 3-21G
 ****


