%nproc=1
%NoSave
%Mem=1900MB
#P OB98/GEN NMR

erre ene a

0 1
  C     -284.234    -146.984     228.741
  O     -283.683    -145.932     227.972
  H     -283.442    -147.708     228.966
  H     -285.015    -147.488     228.166
  H     -284.645    -146.606     229.683
  P     -284.578    -144.616     227.790
  C     -286.385    -145.585     226.201
  O     -286.087    -145.106     227.502
  C     -287.740    -145.054     225.733
  O     -288.792    -145.801     226.405
  C     -287.959    -143.563     226.037
  O     -288.668    -142.968     224.945
  C     -288.852    -143.582     227.271
  O     -289.635    -142.396     227.398
  C     -289.670    -144.849     227.033
  N     -293.513    -144.515     230.286
  C     -293.323    -143.899     229.063
  N     -294.298    -143.061     228.647
  N     -292.265    -144.085     228.314
  C     -291.389    -144.979     228.839
  C     -291.459    -145.649     230.039
  C     -292.622    -145.414     230.876
  O     -292.838    -145.913     231.976
  N     -290.357    -146.440     230.233
  C     -289.619    -146.250     229.152
  N     -290.205    -145.376     228.277
  O     -284.096    -144.038     226.374
  O     -284.447    -143.592     228.869
  H     -290.251    -142.530     228.156
  H     -283.667    -143.171     226.501
  H     -294.342    -144.323     230.827
  H     -288.654    -146.705     228.961
  H     -290.528    -144.676     226.360
  H     -288.233    -143.682     228.170
  H     -295.161    -142.906     229.151
  H     -287.029    -143.018     226.211
  H     -294.197    -142.627     227.735
  H     -287.846    -145.256     224.661
  H     -286.410    -146.683     226.225
  H     -285.599    -145.264     225.508
  P     -287.777    -142.359     223.752
  C     -287.861    -140.069     224.970
  O     -287.056    -141.024     224.293
  O     -288.876    -141.799     222.726
  O     -286.877    -143.355     223.097
  H     -288.912    -142.372     221.936
  H     -287.254    -139.240     225.271
  H     -288.301    -140.522     225.834
  H     -288.634    -139.726     224.315

 6  7  8  9  10  11  12  13  14  15  26  29  33  34 0
 6-311+G(2d,p)
 ****
 36  38  39  40  41 0
 6-311+G(2d,p)
 ****
 1  2  3  4  5  16  17  18  19  20  21  22  23  24  25 0
 3-21G
 ****
 27  28  30  31  32  35  37  42  43  44  45  46  47 0
 3-21G
 ****
 48  49 0
 3-21G
 ****


