%nproc=1
%NoSave
%Mem=1900MB
#P OB98/GEN NMR

erre ene a

0 1
  C       56.125     -29.736      68.527
  O       56.003     -28.498      67.849
  P       55.420     -28.498      66.358
  C       52.987     -27.758      66.895
  O       53.846     -28.795      66.450
  C       52.131     -27.242      65.736
  O       51.166     -26.272      66.244
  C       52.934     -26.548      64.626
  O       52.276     -26.822      63.381
  C       52.775     -25.081      64.975
  O       53.040     -24.214      63.883
  C       51.320     -25.075      65.456
  N       50.980     -23.877      66.222
  C       50.397     -22.821      65.530
  O       50.156     -22.837      64.324
  N       50.147     -21.693      66.265
  C       50.497     -21.488      67.567
  O       50.351     -20.412      68.135
  C       51.111     -22.639      68.248
  C       51.319     -23.762      67.556
  O       56.024     -29.839      65.729
  O       55.774     -27.294      65.551
  H       52.355     -24.374      63.209
  H       56.797     -29.636      65.171
  H       49.714     -20.922      65.782
  H       51.381     -22.518      69.288
  H       51.789     -24.619      68.028
  H       50.639     -25.164      64.600
  H       53.465     -24.822      65.786
  H       53.981     -26.862      64.581
  H       51.558     -28.082      65.324
  H       53.588     -26.937      67.289
  H       52.353     -28.129      67.707
  P       53.167     -26.823      62.045
  C       53.316     -29.426      62.227
  O       53.986     -28.198      62.039
  O       54.267     -25.720      62.419
  O       52.395     -26.502      60.808
  H       54.596     -25.812      63.328
  H       52.316     -29.410      61.786
  H       53.235     -29.634      63.297
  H       53.896     -30.222      61.755
  H       56.527     -29.569      69.505
  H       56.779     -30.380      67.978
  H       55.161     -30.193      68.611

 3  4  5  6  7  8  9  10  11  12  13  23  28  29  30  31  32 0
 6-311+G(2d,p)
 ****
 33  34 0
 6-311+G(2d,p)
 ****
 1  2  14  15  16  17  18  19  20  21  22  24  25  26 0
 3-21G
 ****
 27  35  36  37  38  39  40  41  42  43  44  45 0
 3-21G
 ****


