%nproc=1
%NoSave
%Mem=1900MB
#P OB98/GEN NMR

erre ene a

0 1
  C       70.727     -85.724      44.685
  O       72.008     -85.112      44.879
  P       72.871     -84.475      43.683
  C       73.659     -82.304      44.832
  O       74.042     -83.565      44.298
  C       73.114     -82.432      46.258
  O       74.076     -83.137      47.102
  C       72.804     -81.088      46.943
  O       71.609     -81.284      47.706
  C       74.017     -80.906      47.842
  O       73.817     -79.973      48.886
  C       74.218     -82.352      48.305
  N       75.494     -82.632      48.955
  C       75.492     -82.804      50.343
  O       74.466     -82.669      51.007
  N       76.679     -83.112      50.967
  C       77.767     -83.229      50.275
  N       78.903     -83.545      50.954
  C       77.818     -83.036      48.816
  C       76.658     -82.746      48.229
  O       72.044     -83.765      42.661
  O       73.651     -85.705      43.018
  H       73.717     -85.560      42.055
  H       73.361     -79.195      48.512
  H       78.746     -83.151      48.276
  H       76.606     -82.617      47.152
  H       73.397     -82.637      48.973
  H       74.854     -80.550      47.234
  H       72.642     -80.266      46.240
  H       72.213     -83.057      46.222
  H       78.828     -83.679      51.955
  H       72.879     -81.880      44.193
  H       79.804     -83.668      50.514
  H       74.523     -81.631      44.812
  P       70.399     -80.241      47.566
  C       68.247     -81.701      47.722
  O       69.150     -80.834      48.378
  O       69.940     -80.471      46.045
  O       70.736     -78.803      47.789
  H       69.511     -79.662      45.715
  H       68.028     -82.543      48.384
  H       68.651     -82.090      46.784
  H       67.320     -81.161      47.517
  H       70.352     -86.072      45.625
  H       70.825     -86.550      44.012
  H       70.048     -85.007      44.273

 3  4  5  6  7  8  9  10  11  12  13  24  27  28  29  30  32 0
 6-311+G(2d,p)
 ****
 34  35 0
 6-311+G(2d,p)
 ****
 1  2  14  15  16  17  18  19  20  21  22  23  25  26 0
 3-21G
 ****
 31  33  36  37  38  39  40  41  42  43  44  45  46 0
 3-21G
 ****


