%nproc=1
%NoSave
%Mem=1900MB
#P OB98/GEN NMR

erre ene a

0 1
  C     -521.491     181.593     528.300
  O     -521.283     182.297     529.495
  H     -522.032     180.673     528.519
  H     -520.535     181.322     527.844
  H     -522.089     182.188     527.597
  P     -520.496     183.699     529.438
  C     -522.788     184.864     529.851
  O     -521.427     184.714     530.283
  C     -523.638     185.439     530.977
  O     -523.828     184.472     532.035
  C     -523.035     186.663     531.683
  O     -523.100     187.851     530.907
  C     -523.923     186.719     532.914
  O     -525.210     187.260     532.563
  C     -524.032     185.213     533.269
  N     -523.037     184.802     534.294
  C     -523.162     185.402     535.542
  O     -524.037     186.228     535.769
  N     -522.232     185.071     536.521
  C     -521.261     184.244     536.234
  N     -520.393     183.956     537.241
  C     -521.107     183.602     534.913
  C     -522.012     183.923     533.996
  O     -520.099     184.168     528.071
  O     -519.257     183.510     530.441
  H     -525.109     188.227     532.490
  H     -518.734     184.351     530.430
  H     -520.264     182.948     534.735
  H     -521.954     183.500     533.003
  H     -525.022     184.973     533.647
  H     -523.523     187.341     533.710
  H     -522.005     186.452     532.009
  H     -524.636     185.662     530.564
  H     -520.528     184.402     538.128
  H     -523.153     183.880     529.528
  H     -519.554     183.378     537.094
  H     -522.822     185.560     528.997
  P     -521.773     188.766     530.895
  C     -520.768     187.836     528.670
  O     -521.353     188.927     529.351
  O     -520.648     187.801     531.499
  O     -521.881     190.063     531.656
  H     -520.499     187.991     532.465
  H     -520.554     188.119     527.660
  H     -521.446     187.009     528.673
  H     -519.860     187.554     529.161

 6  7  8  9  10  11  12  13  14  15  16  26  30  31  32  33  35 0
 6-311+G(2d,p)
 ****
 37  38 0
 6-311+G(2d,p)
 ****
 1  2  3  4  5  17  18  19  20  21  22  23  24  25 0
 3-21G
 ****
 27  28  29  34  36  39  40  41  42  43  44  45  46 0
 3-21G
 ****


