%nproc=1
%NoSave
%Mem=1900MB
#P OB98/GEN NMR

erre ene a

0 1
  C      714.569    -812.563      71.045
  O      714.884    -813.909      70.730
  H      715.463    -811.954      70.948
  H      714.225    -812.523      72.086
  H      713.790    -812.177      70.385
  P      713.671    -814.902      70.428
  C      713.470    -817.413      69.776
  O      714.306    -816.373      70.271
  C      714.319    -818.524      69.150
  O      714.924    -818.026      67.922
  C      715.457    -819.022      70.051
  O      715.606    -820.441      69.872
  C      716.675    -818.340      69.478
  O      717.886    -819.029      69.790
  C      716.322    -818.343      67.994
  N      720.915    -817.655      66.072
  C      720.322    -818.778      66.606
  N      721.085    -819.898      66.694
  N      719.075    -818.821      67.008
  C      718.417    -817.651      66.856
  C      718.893    -816.460      66.361
  C      720.274    -816.421      65.919
  O      720.875    -815.439      65.464
  N      717.934    -815.480      66.414
  C      716.880    -816.077      66.974
  N      717.146    -817.389      67.254
  O      713.251    -814.511      68.927
  O      712.512    -814.806      71.366
  H      717.849    -819.282      70.729
  H      712.522    -813.867      68.942
  H      721.887    -817.676      65.797
  H      715.948    -815.602      67.203
  H      716.477    -819.325      67.523
  H      716.751    -817.324      69.863
  H      722.037    -819.957      66.370
  H      715.308    -818.809      71.117
  H      720.650    -820.738      67.031
  H      713.658    -819.348      68.873
  H      712.808    -816.990      68.997
  H      712.856    -817.809      70.593
  P      714.804    -821.428      70.848
  C      714.069    -823.904      70.555
  O      715.112    -822.939      70.437
  O      713.274    -821.216      70.407
  O      714.976    -821.113      72.299
  H      712.690    -821.291      71.174
  H      714.432    -824.861      70.243
  H      713.245    -823.616      69.936
  H      713.748    -823.959      71.574

 6  7  8  9  10  11  12  13  14  15  26  29  33  34 0
 6-311+G(2d,p)
 ****
 36  38  39  40  41 0
 6-311+G(2d,p)
 ****
 1  2  3  4  5  16  17  18  19  20  21  22  23  24  25 0
 3-21G
 ****
 27  28  30  31  32  35  37  42  43  44  45  46  47 0
 3-21G
 ****
 48  49 0
 3-21G
 ****


