%nproc=1
%NoSave
%Mem=1900MB
#P OB98/GEN NMR

erre ene a

0 1
  C      416.063      46.609    -352.452
  O      416.777      47.829    -352.403
  H      416.642      45.843    -351.932
  H      415.919      46.302    -353.492
  H      415.093      46.718    -351.959
  P      416.070      49.098    -353.082
  C      416.836      50.581    -351.078
  O      416.816      50.387    -352.486
  C      418.226      50.254    -350.519
  O      419.210      51.094    -351.194
  C      418.365      50.522    -349.012
  O      419.324      49.602    -348.471
  C      418.952      51.925    -349.001
  O      419.505      52.215    -347.742
  C      419.930      51.800    -350.164
  N      423.449      55.442    -349.563
  C      423.293      54.233    -348.982
  N      422.332      53.315    -349.206
  C      421.484      53.738    -350.158
  C      421.509      54.946    -350.836
  C      422.550      55.828    -350.502
  N      422.699      57.072    -351.074
  N      420.451      55.028    -351.722
  C      419.801      53.888    -351.583
  N      420.391      53.080    -350.650
  O      414.631      49.133    -352.382
  O      415.970      49.062    -354.569
  H      419.976      53.073    -347.750
  H      413.987      48.638    -352.921
  H      424.043      53.969    -348.240
  H      418.907      53.602    -352.119
  H      420.817      51.206    -349.905
  H      418.186      52.674    -349.207
  H      417.422      50.432    -348.467
  H      418.477      49.214    -350.765
  H      416.087      49.925    -350.626
  H      416.592      51.623    -350.851
  H      423.457      57.654    -350.758
  H      422.018      57.388    -351.748
  P      418.911      48.689    -347.214
  C      419.708      46.320    -347.972
  O      419.888      47.424    -347.096
  O      417.547      48.018    -347.725
  O      418.673      49.429    -345.937
  H      416.874      48.067    -347.024
  H      420.441      45.570    -347.756
  H      419.819      46.647    -348.985
  H      418.729      45.912    -347.834

 6  7  8  9  10  11  12  13  14  15  25  28  32  33  34  35 0
 6-311+G(2d,p)
 ****
 36  37  40 0
 6-311+G(2d,p)
 ****
 1  2  3  4  5  16  17  18  19  20  21  22  23  24 0
 3-21G
 ****
 26  27  29  30  31  38  39 41  42  43  44  45  46  47  48 0
 3-21G
 ****


