%nproc=1
%NoSave
%Mem=1900MB
#P OB98/GEN NMR

erre ene a

0 1
  C      -19.760       2.043     180.891
  O      -19.406       3.405     181.166
  P      -20.537       4.375     181.756
  C      -21.138       5.197     179.360
  O      -21.606       4.678     180.599
  C      -22.296       5.337     178.366
  O      -23.321       6.223     178.860
  C      -21.880       5.910     177.019
  O      -21.327       4.910     176.176
  C      -23.220       6.377     176.472
  O      -23.946       5.256     175.931
  C      -23.920       6.903     177.733
  N      -26.406      11.260     178.782
  C      -26.839       9.986     178.626
  N      -26.119       8.884     178.330
  C      -24.818       9.187     178.206
  C      -24.230      10.436     178.335
  C      -25.084      11.508     178.637
  N      -24.634      12.801     178.795
  N      -22.867      10.359     178.127
  C      -22.635       9.081     177.890
  N      -23.784       8.337     177.920
  O      -19.768       5.771     181.921
  O      -21.116       3.913     183.054
  H      -24.784       5.605     175.575
  H      -20.108       6.243     182.704
  H      -27.906       9.835     178.760
  H      -21.660       8.654     177.698
  H      -24.993       6.676     177.739
  H      -23.112       7.108     175.665
  H      -21.205       6.766     177.148
  H      -22.741       4.343     178.223
  H      -20.366       4.542     178.948
  H      -25.303      13.515     179.038
  H      -23.647      12.987     178.713
  H      -20.656       6.163     179.538
  P      -19.757       5.008     175.856
  C      -20.225       6.801     174.035
  O      -19.532       6.459     175.221
  O      -19.582       4.007     174.617
  O      -18.873       4.643     177.000
  H      -18.687       3.615     174.630
  H      -20.203       7.888     173.917
  H      -21.268       6.475     174.078
  H      -19.729       6.340     173.177
  H      -18.908       1.524     180.505
  H      -20.550       2.018     180.169
  H      -20.087       1.570     181.794

 3  4  5  6  7  8  9  10  11  12  22  25  29  30  31  32 0
 6-311+G(2d,p)
 ****
 33  36  37 0
 6-311+G(2d,p)
 ****
 1  2  13  14  15  16  17  18  19  20  21  23  24  26 0
 3-21G
 ****
 27  28  34  35  38  39  40  41  42  43  44  45  46  47  48 0
 3-21G
 ****


