%nproc=1
%NoSave
%Mem=1900MB
#P OB98/GEN NMR

erre ene a

0 1
  C      -78.553      35.113     436.453
  O      -79.295      35.483     437.597
  H      -77.848      34.326     436.728
  H      -77.989      35.971     436.075
  H      -79.218      34.735     435.670
  P      -80.453      36.570     437.390
  C      -80.320      38.145     439.447
  O      -80.940      37.007     438.856
  C      -80.526      38.144     440.961
  O      -81.952      38.131     441.246
  C      -79.908      36.930     441.683
  O      -79.434      37.373     442.961
  C      -81.104      36.027     441.908
  O      -80.897      35.094     442.964
  C      -82.184      37.073     442.190
  N      -85.619      34.193     444.487
  C      -84.368      34.607     444.906
  N      -83.968      34.189     446.127
  N      -83.581      35.368     444.191
  C      -84.125      35.737     443.013
  C      -85.342      35.394     442.474
  C      -86.192      34.530     443.263
  O      -87.300      34.116     442.938
  N      -85.512      35.951     441.224
  C      -84.394      36.629     441.017
  N      -83.525      36.528     442.066
  O      -81.672      35.685     436.836
  O      -80.121      37.698     436.464
  H      -81.738      34.591     443.096
  H      -81.675      35.688     435.862
  H      -86.173      33.601     445.071
  H      -84.174      37.193     440.120
  H      -82.109      37.490     443.200
  H      -81.335      35.463     440.997
  H      -84.543      33.641     446.754
  H      -79.096      36.446     441.136
  H      -83.075      34.518     446.474
  H      -80.124      39.082     441.364
  H      -80.770      39.049     439.023
  H      -79.252      38.132     439.211
  P      -77.848      37.378     443.214
  C      -77.727      36.394     445.632
  O      -77.597      37.541     444.798
  O      -77.398      38.804     442.639
  O      -77.114      36.257     442.558
  H      -76.473      38.758     442.335
  H      -77.530      36.667     446.648
  H      -77.027      35.646     445.322
  H      -78.721      36.007     445.553

 6  7  8  9  10  11  12  13  14  15  26  29  33  34 0
 6-311+G(2d,p)
 ****
 36  38  39  40  41 0
 6-311+G(2d,p)
 ****
 1  2  3  4  5  16  17  18  19  20  21  22  23  24  25 0
 3-21G
 ****
 27  28  30  31  32  35  37  42  43  44  45  46  47 0
 3-21G
 ****
 48  49 0
 3-21G
 ****


