%nproc=1
%NoSave
%Mem=1900MB
#P OB98/GEN NMR

erre ene a

0 1
  C      278.609    -364.069     174.563
  O      279.772    -363.701     173.855
  P      280.939    -362.900     174.600
  C      282.003    -365.114     175.365
  O      282.214    -363.866     174.701
  C      283.334    -365.718     175.793
  O      284.186    -365.924     174.645
  C      284.137    -364.844     176.746
  O      283.609    -364.909     178.055
  C      285.529    -365.444     176.594
  O      285.668    -366.616     177.406
  C      285.553    -365.814     175.103
  N      290.152    -364.412     173.395
  C      289.773    -365.324     174.315
  N      288.526    -365.614     174.749
  C      287.624    -364.827     174.136
  C      287.861    -363.827     173.202
  C      289.197    -363.643     172.811
  N      289.595    -362.760     171.831
  N      286.677    -363.218     172.835
  C      285.749    -363.827     173.536
  N      286.266    -364.848     174.289
  O      280.545    -362.236     175.878
  O      281.403    -361.812     173.519
  H      286.610    -366.859     177.417
  H      281.265    -360.913     173.878
  H      290.574    -365.904     174.756
  H      284.690    -363.583     173.529
  H      286.022    -366.789     174.933
  H      286.325    -364.747     176.891
  H      284.150    -363.810     176.381
  H      283.135    -366.699     176.244
  H      281.488    -365.790     174.673
  H      290.552    -362.809     171.526
  H      288.886    -362.410     171.184
  H      281.362    -364.951     176.237
  P      283.768    -363.652     179.040
  C      281.314    -362.969     179.330
  O      282.436    -363.586     179.929
  O      284.168    -362.369     178.388
  O      284.873    -364.137     180.093
  H      285.394    -363.370     180.392
  H      281.427    -361.883     179.367
  H      280.416    -363.252     179.891
  H      281.199    -363.292     178.291
  H      277.944    -364.593     173.909
  H      278.124    -363.190     174.934
  H      278.876    -364.702     175.383

 3  4  5  6  7  8  9  10  11  12  22  25  29  30  31  32 0
 6-311+G(2d,p)
 ****
 33  36  37 0
 6-311+G(2d,p)
 ****
 1  2  13  14  15  16  17  18  19  20  21  23  24  26 0
 3-21G
 ****
 27  28  34  35  38  39  40  41  42  43  44  45  46  47  48 0
 3-21G
 ****


