%nproc=1
%NoSave
%Mem=1900MB
#P OB98/GEN NMR

erre ene a

0 1
  C      600.971      39.020     184.996
  O      601.415      38.144     183.978
  P      601.170      36.568     184.064
  C      602.336      34.629     185.303
  O      602.062      36.032     185.294
  C      603.292      34.290     186.460
  O      604.613      34.821     186.143
  C      602.841      34.898     187.803
  O      602.763      33.950     188.873
  C      603.843      36.026     188.008
  O      603.967      36.447     189.354
  C      605.097      35.459     187.340
  N      606.100      36.484     187.062
  C      607.006      36.778     188.082
  O      607.029      36.226     189.172
  N      607.885      37.789     187.826
  C      607.878      38.607     186.725
  O      608.629      39.556     186.607
  C      606.868      38.272     185.703
  C      606.051      37.232     185.904
  O      601.360      35.811     182.796
  O      599.688      36.466     184.674
  H      604.607      37.180     189.388
  H      599.574      36.884     185.539
  H      608.554      38.019     188.547
  H      606.832      38.907     184.829
  H      605.299      36.969     185.167
  H      605.557      34.685     187.956
  H      603.490      36.894     187.438
  H      601.831      35.310     187.732
  H      603.359      33.199     186.518
  H      602.804      34.350     184.358
  H      601.397      34.076     185.390
  P      601.826      34.114     190.170
  C      602.183      34.912     192.622
  O      602.644      34.916     191.283
  O      601.179      32.857     190.640
  O      600.722      35.180     189.699
  H      599.892      35.018     190.177
  H      602.502      35.836     193.104
  H      602.625      34.063     193.151
  H      601.090      34.847     192.665
  H      601.236      40.025     184.742
  H      601.433      38.753     185.923
  H      599.908      38.945     185.093

 3  4  5  6  7  8  9  10  11  12  13  23  28  29  30  31  32 0
 6-311+G(2d,p)
 ****
 33  34 0
 6-311+G(2d,p)
 ****
 1  2  14  15  16  17  18  19  20  21  22  24  25  26  27 0
 3-21G
 ****
 35  36  37  38  39  40  41  42  43  44  45 0
 3-21G
 ****


