%nproc=1
%NoSave
%Mem=1900MB
#P OB98/GEN NMR

erre ene a

0 1
  C      -11.855    -204.318    -274.653
  O      -12.122    -205.644    -275.070
  H      -11.921    -203.657    -275.523
  H      -10.849    -204.242    -274.235
  H      -12.590    -203.996    -273.910
  P      -12.081    -206.808    -273.973
  C      -14.457    -207.706    -274.437
  O      -13.060    -207.958    -274.511
  C      -15.208    -208.644    -275.374
  O      -14.809    -208.417    -276.742
  C      -14.961    -210.128    -275.096
  O      -15.771    -210.572    -274.022
  C      -15.362    -210.731    -276.439
  O      -16.796    -210.769    -276.539
  C      -14.784    -209.701    -277.427
  N      -11.825    -212.520    -280.431
  C      -13.187    -212.579    -280.219
  N      -13.854    -213.558    -280.873
  N      -13.840    -211.767    -279.428
  C      -13.033    -210.887    -278.790
  C      -11.672    -210.740    -278.898
  C      -10.969    -211.608    -279.823
  O       -9.766    -211.579    -280.051
  N      -11.191    -209.780    -278.043
  C      -12.272    -209.319    -277.443
  N      -13.417    -209.970    -277.849
  O      -12.356    -206.396    -272.556
  O      -10.625    -207.450    -274.143
  H      -17.002    -210.963    -277.474
  H       -9.981    -207.032    -273.538
  H      -11.382    -213.187    -281.041
  H      -12.286    -208.520    -276.713
  H      -15.393    -209.603    -278.329
  H      -14.998    -211.746    -276.578
  H      -13.376    -214.365    -281.258
  H      -13.892    -210.338    -274.931
  H      -14.845    -213.647    -280.697
  H      -16.281    -208.405    -275.309
  H      -14.619    -206.664    -274.731
  H      -14.815    -207.842    -273.417
  P      -15.139    -210.868    -272.573
  C      -17.350    -210.437    -271.302
  O      -16.366    -211.395    -271.690
  O      -14.380    -209.726    -271.976
  O      -14.265    -212.189    -272.781
  H      -13.331    -212.008    -273.061
  H      -18.108    -210.919    -270.720
  H      -17.792    -210.006    -272.176
  H      -16.888    -209.668    -270.719

 6  7  8  9  10  11  12  13  14  15  26  29  33  34 0
 6-311+G(2d,p)
 ****
 36  38  39  40  41 0
 6-311+G(2d,p)
 ****
 1  2  3  4  5  16  17  18  19  20  21  22  23  24  25 0
 3-21G
 ****
 27  28  30  31  32  35  37  42  43  44  45  46  47 0
 3-21G
 ****
 48  49 0
 3-21G
 ****


