%nproc=1
%NoSave
%Mem=1900MB
#P OB98/GEN NMR

erre ene a

0 1
  C     -741.936     557.144      96.108
  O     -742.189     558.162      97.053
  H     -742.842     556.984      95.516
  H     -741.679     556.213      96.619
  H     -741.125     557.439      95.437
  P     -740.967     558.560      98.015
  C     -741.003     561.031      97.186
  O     -740.265     559.829      97.334
  C     -741.346     561.271      95.713
  O     -742.199     560.184      95.248
  C     -742.113     562.579      95.456
  O     -741.794     563.024      94.127
  C     -743.554     562.101      95.498
  O     -744.426     563.076      94.970
  C     -743.409     560.789      94.741
  N     -746.506     557.471      92.382
  C     -745.424     558.155      91.950
  N     -744.644     559.012      92.638
  C     -745.059     559.113      93.911
  C     -746.135     558.474      94.499
  C     -746.885     557.619      93.673
  N     -747.991     556.922      94.110
  N     -746.254     558.833      95.829
  C     -745.266     559.678      96.041
  N     -744.524     559.884      94.906
  O     -739.918     557.373      97.788
  O     -741.315     558.732      99.456
  H     -744.543     563.819      95.598
  H     -740.029     556.695      98.481
  H     -745.154     557.999      90.911
  H     -745.045     560.173      96.977
  H     -743.273     560.950      93.661
  H     -743.876     561.922      96.531
  H     -741.875     563.371      96.174
  H     -740.426     561.221      95.119
  H     -740.394     561.860      97.567
  H     -741.927     560.965      97.768
  H     -748.481     556.344      93.446
  H     -748.297     557.037      95.065
  P     -740.374     563.736      93.856
  C     -739.231     562.725      91.735
  O     -739.399     562.681      93.143
  O     -739.757     563.812      95.338
  O     -740.441     565.097      93.245
  H     -739.149     564.570      95.397
  H     -738.552     561.956      91.433
  H     -738.838     563.679      91.452
  H     -740.177     562.573      91.258

 6  7  8  9  10  11  12  13  14  15  25  28  32  33  34  35 0
 6-311+G(2d,p)
 ****
 36  37  40 0
 6-311+G(2d,p)
 ****
 1  2  3  4  5  16  17  18  19  20  21  22  23  24 0
 3-21G
 ****
 26  27  29  30  31  38  39 41  42  43  44  45  46  47  48 0
 3-21G
 ****


