%nproc=1
%NoSave
%Mem=1900MB
#P OB98/GEN NMR

erre ene a

0 1
  C     -128.089     227.086     221.425
  O     -127.106     228.115     221.561
  P     -125.790     228.067     220.642
  C     -126.258     228.421     218.139
  O     -125.995     229.050     219.388
  C     -126.805     229.401     217.094
  O     -128.063     229.984     217.534
  C     -125.861     230.565     216.759
  O     -126.023     230.855     215.364
  C     -126.422     231.692     217.609
  O     -125.982     232.974     217.177
  C     -127.922     231.417     217.476
  N     -128.708     232.078     218.506
  C     -129.818     232.815     218.091
  O     -130.040     232.973     216.888
  N     -130.630     233.383     219.046
  C     -130.273     233.344     220.291
  N     -131.110     233.900     221.212
  C     -129.010     232.730     220.751
  C     -128.297     232.101     219.819
  O     -125.305     226.697     220.294
  O     -124.706     228.852     221.530
  H     -126.076     233.032     216.203
  H     -123.826     228.446     221.385
  H     -128.716     232.792     221.786
  H     -127.362     231.618     220.051
  H     -128.293     231.743     216.491
  H     -126.097     231.561     218.651
  H     -124.807     230.342     216.961
  H     -127.018     228.834     216.174
  H     -131.962     234.336     220.880
  H     -126.986     227.612     218.286
  H     -130.929     233.861     222.208
  H     -125.340     227.937     217.780
  P     -125.049     230.139     214.305
  C     -126.931     228.707     213.220
  O     -125.938     229.694     213.045
  O     -124.768     228.729     215.026
  O     -123.758     230.839     214.015
  H     -123.912     228.373     214.699
  H     -127.607     228.731     212.360
  H     -127.517     228.882     214.126
  H     -126.465     227.713     213.271
  H     -128.894     227.269     222.106
  H     -127.645     226.137     221.644
  H     -128.464     227.081     220.423

 3  4  5  6  7  8  9  10  11  12  13  23  27  28  29  30  32 0
 6-311+G(2d,p)
 ****
 34  35 0
 6-311+G(2d,p)
 ****
 1  2  14  15  16  17  18  19  20  21  22  24  25  26 0
 3-21G
 ****
 31  33  36  37  38  39  40  41  42  43  44  45  46 0
 3-21G
 ****


