%nproc=1
%NoSave
%Mem=1900MB
#P OB98/GEN NMR

erre ene a

0 1
  C     1423.202     140.311      21.331
  O     1423.368     141.199      22.422
  H     1423.560     139.327      21.635
  H     1423.785     140.656      20.473
  H     1422.148     140.234      21.055
  P     1422.878     142.714      22.192
  C     1422.358     142.998      24.726
  O     1423.079     143.469      23.594
  C     1423.056     143.451      26.002
  O     1423.098     144.890      26.060
  C     1422.341     143.018      27.287
  O     1422.590     141.661      27.609
  C     1422.931     144.007      28.291
  O     1424.195     143.562      28.781
  C     1423.095     145.277      27.453
  N     1421.397     148.856      30.701
  C     1422.542     148.114      30.673
  N     1422.928     147.187      29.762
  C     1422.005     147.075      28.781
  C     1420.793     147.754      28.679
  C     1420.503     148.679      29.701
  N     1419.335     149.408      29.740
  N     1420.096     147.335      27.560
  C     1420.873     146.425      27.009
  N     1422.027     146.243      27.706
  O     1421.283     142.562      22.059
  O     1423.462     143.401      21.006
  H     1424.100     142.604      28.947
  H     1421.025     142.578      21.126
  H     1423.245     148.293      31.484
  H     1420.621     145.862      26.104
  H     1424.047     145.791      27.661
  H     1422.265     144.115      29.147
  H     1421.259     143.203      27.185
  H     1424.093     143.079      25.994
  H     1422.329     141.898      24.703
  H     1421.336     143.390      24.679
  H     1419.162     149.995      30.536
  H     1418.611     149.209      29.069
  P     1421.353     140.777      28.095
  C     1422.591     138.509      27.739
  O     1421.954     139.384      28.639
  O     1420.604     140.350      26.726
  O     1420.418     141.467      29.042
  H     1419.649     140.344      26.875
  H     1422.927     137.640      28.264
  H     1423.429     139.003      27.294
  H     1421.901     138.219      26.975

 6  7  8  9  10  11  12  13  14  15  25  28  32  33  34  35 0
 6-311+G(2d,p)
 ****
 36  37  40 0
 6-311+G(2d,p)
 ****
 1  2  3  4  5  16  17  18  19  20  21  22  23  24 0
 3-21G
 ****
 26  27  29  30  31  38  39 41  42  43  44  45  46  47  48 0
 3-21G
 ****


