%nproc=1
%NoSave
%Mem=1900MB
#P OB98/GEN NMR

erre ene a

0 1
  C     -121.240     226.869     -80.394
  O     -120.442     226.770     -79.208
  P     -120.927     227.382     -77.807
  C     -119.257     225.904     -76.532
  O     -119.776     227.220     -76.691
  C     -117.882     225.880     -75.849
  O     -116.841     226.342     -76.753
  C     -117.774     226.733     -74.578
  O     -116.831     226.067     -73.734
  C     -117.191     228.029     -75.115
  O     -116.595     228.839     -74.113
  C     -116.208     227.485     -76.147
  N     -112.867     231.149     -77.433
  C     -112.843     230.216     -76.458
  N     -113.750     229.251     -76.203
  C     -114.745     229.275     -77.103
  C     -114.900     230.164     -78.156
  C     -113.905     231.145     -78.301
  N     -113.947     232.129     -79.264
  N     -116.067     229.901     -78.851
  C     -116.610     228.881     -78.216
  N     -115.847     228.464     -77.155
  O     -122.274     226.904     -77.362
  O     -120.970     228.963     -78.063
  H     -115.861     228.341     -73.710
  H     -121.803     229.322     -77.702
  H     -111.985     230.251     -75.791
  H     -117.557     228.421     -78.465
  H     -115.281     227.137     -75.670
  H     -117.989     228.615     -75.587
  H     -118.728     226.874     -74.065
  H     -117.647     224.830     -75.622
  H     -119.178     225.438     -77.522
  H     -113.236     232.845     -79.231
  H     -114.773     232.221     -79.836
  H     -119.968     225.314     -75.942
  P     -117.280     225.329     -72.385
  C     -116.006     223.174     -72.908
  O     -116.126     224.279     -72.029
  O     -118.660     224.761     -72.410
  O     -117.125     226.446     -71.246
  H     -117.654     226.189     -70.465
  H     -116.803     222.455     -72.706
  H     -115.039     222.692     -72.743
  H     -116.064     223.496     -73.953
  H     -120.730     226.397     -81.208
  H     -121.406     227.900     -80.627
  H     -122.180     226.384     -80.233

 3  4  5  6  7  8  9  10  11  12  22  25  29  30  31  32 0
 6-311+G(2d,p)
 ****
 33  36  37 0
 6-311+G(2d,p)
 ****
 1  2  13  14  15  16  17  18  19  20  21  23  24  26 0
 3-21G
 ****
 27  28  34  35  38  39  40  41  42  43  44  45  46  47  48 0
 3-21G
 ****


