%nproc=1
%NoSave
%Mem=1900MB
#P OB98/GEN NMR

erre ene a

0 1
  C       15.234     -98.320     -25.407
  O       16.020     -99.396     -24.938
  P       17.612     -99.277     -24.841
  C       19.632     -99.738     -26.349
  O       18.222     -99.570     -26.294
  C       20.148     -99.652     -27.785
  O       19.809     -98.355     -28.342
  C       21.665     -99.839     -27.919
  O       21.896    -100.587     -29.118
  C       22.172     -98.418     -28.071
  O       23.447     -98.362     -28.695
  C       21.025     -97.789     -28.868
  N       21.017     -96.336     -28.779
  C       21.416     -95.632     -29.917
  O       21.876     -96.234     -30.888
  N       21.295     -94.265     -29.916
  C       20.988     -93.651     -28.815
  N       20.813     -92.304     -28.874
  C       20.805     -94.355     -27.529
  C       20.791     -95.684     -27.590
  O       18.239    -100.061     -23.737
  O       17.879     -97.709     -24.650
  H       18.440     -97.575     -23.861
  H       23.742     -97.428     -28.732
  H       20.678     -93.794     -26.616
  H       20.636     -96.290     -26.706
  H       21.087     -98.078     -29.925
  H       22.256     -97.950     -27.084
  H       22.103    -100.372     -27.070
  H       19.622    -100.409     -28.381
  H       20.907     -91.862     -29.780
  H       19.874    -100.721     -25.942
  H       20.278     -91.796     -28.170
  H       20.121     -98.986     -25.719
  P       23.028    -101.727     -29.099
  C       25.597    -101.811     -28.739
  O       24.447    -101.008     -28.905
  O       23.080    -102.156     -30.647
  O       22.753    -102.925     -28.251
  H       23.412    -103.070     -30.711
  H       26.454    -101.158     -28.554
  H       25.790    -102.390     -29.645
  H       25.478    -102.483     -27.886
  H       14.201     -98.601     -25.394
  H       15.525     -98.075     -26.407
  H       15.380     -97.469     -24.775

 3  4  5  6  7  8  9  10  11  12  13  24  27  28  29  30  32 0
 6-311+G(2d,p)
 ****
 34  35 0
 6-311+G(2d,p)
 ****
 1  2  14  15  16  17  18  19  20  21  22  23  25  26 0
 3-21G
 ****
 31  33  36  37  38  39  40  41  42  43  44  45  46 0
 3-21G
 ****


