%nproc=1
%NoSave
%Mem=1900MB
#P OB98/GEN NMR

erre ene a

0 1
  C       13.634      68.859     -41.646
  O       12.484      68.291     -42.248
  P       11.123      68.130     -41.427
  C        8.589      67.824     -42.042
  O        9.934      67.895     -42.463
  C        7.740      67.257     -43.187
  O        7.561      68.252     -44.215
  C        8.398      66.035     -43.822
  O        7.900      64.840     -43.243
  C        8.042      66.191     -45.288
  O        6.709      65.709     -45.536
  C        8.097      67.728     -45.459
  N        9.412      68.355     -45.690
  C       10.119      68.064     -46.853
  O        9.701      67.324     -47.738
  N       11.359      68.643     -46.956
  C       11.917      69.498     -46.050
  O       13.102      69.812     -46.032
  C       11.020      69.974     -44.994
  C        9.838      69.375     -44.850
  O       10.852      69.609     -40.882
  O       11.154      67.123     -40.324
  H        6.451      66.023     -46.421
  H       11.147      69.694     -39.956
  H       11.934      68.325     -47.729
  H       11.371      70.757     -44.336
  H        9.171      69.685     -44.050
  H        7.437      68.056     -46.270
  H        8.702      65.599     -45.919
  H        9.489      66.095     -43.718
  H        6.748      66.995     -42.796
  H        8.232      68.820     -41.758
  H        8.506      67.186     -41.157
  P        8.588      63.441     -43.602
  C        8.627      61.139     -42.477
  O        8.367      62.518     -42.309
  O        9.992      63.522     -44.100
  O        7.602      62.819     -44.702
  H        7.954      62.993     -45.599
  H        8.617      60.658     -41.496
  H        9.607      60.985     -42.939
  H        7.849      60.690     -43.099
  H       14.435      68.878     -42.355
  H       13.921      68.271     -40.800
  H       13.414      69.857     -41.329

 3  4  5  6  7  8  9  10  11  12  13  23  28  29  30  31  32 0
 6-311+G(2d,p)
 ****
 33  34 0
 6-311+G(2d,p)
 ****
 1  2  14  15  16  17  18  19  20  21  22  24  25  26  27 0
 3-21G
 ****
 35  36  37  38  39  40  41  42  43  44  45 0
 3-21G
 ****


