%nproc=1
%NoSave
%Mem=1900MB
#P OB98/GEN NMR

erre ene a

0 1
  C     -199.769     311.581      48.233
  O     -199.110     311.936      49.436
  H     -199.280     312.091      47.401
  H     -200.817     311.891      48.273
  H     -199.700     310.499      48.073
  P     -199.664     311.264      50.781
  C     -201.245     313.315      50.786
  O     -200.397     312.468      51.549
  C     -201.710     314.503      51.625
  O     -202.641     314.071      52.635
  C     -200.594     315.226      52.370
  O     -199.908     316.122      51.512
  C     -201.390     315.962      53.434
  O     -201.981     317.148      52.868
  C     -202.496     314.945      53.787
  N     -202.028     314.917      58.901
  C     -202.125     315.931      58.016
  N     -202.202     315.868      56.667
  C     -202.177     314.588      56.249
  C     -202.079     313.451      57.039
  C     -202.017     313.648      58.428
  N     -201.928     312.611      59.334
  N     -202.076     312.313      56.257
  C     -202.222     312.755      55.026
  N     -202.248     314.129      54.962
  O     -198.671     310.479      51.571
  O     -200.900     310.418      50.215
  H     -202.407     316.892      52.027
  H     -201.359     310.915      49.513
  H     -202.145     316.931      58.447
  H     -202.327     312.130      54.145
  H     -203.462     315.438      53.952
  H     -200.770     316.282      54.272
  H     -199.914     314.515      52.857
  H     -202.249     315.195      50.963
  H     -202.110     312.762      50.412
  H     -201.716     312.845      60.292
  H     -201.794     311.675      58.971
  H     -200.664     313.667      49.924
  P     -198.586     316.877      52.008
  C     -199.395     319.274      52.493
  O     -198.749     318.416      51.565
  O     -197.302     316.247      51.598
  O     -198.734     316.946      53.603
  H     -197.868     316.815      54.032
  H     -199.444     320.264      52.089
  H     -198.842     319.289      53.409
  H     -200.386     318.916      52.680

 6  7  8  9  10  11  12  13  14  15  25  28  32  33  34  35 0
 6-311+G(2d,p)
 ****
 36  39  40 0
 6-311+G(2d,p)
 ****
 1  2  3  4  5  16  17  18  19  20  21  22  23  24 0
 3-21G
 ****
 26  27  29  30  31  37  38  41  42  43  44  45  46  47 0
 3-21G
 ****
 48 0
 3-21G
 ****


