%nproc=1
%NoSave
%Mem=1900MB
#P OB98/GEN NMR

erre ene a

0 1
  C     -125.214    -173.130     122.446
  O     -124.339    -172.026     122.302
  H     -125.951    -173.098     121.635
  H     -125.741    -173.089     123.402
  H     -124.651    -174.065     122.368
  P     -123.344    -171.689     123.518
  C     -123.711    -170.926     125.959
  O     -124.262    -170.994     124.643
  C     -124.812    -170.942     127.021
  O     -125.748    -172.015     126.772
  C     -124.308    -171.188     128.438
  O     -123.515    -170.153     128.969
  C     -125.584    -171.592     129.160
  O     -126.362    -170.464     129.566
  C     -126.329    -172.374     128.046
  N     -126.299    -173.817     128.266
  C     -127.067    -174.290     129.326
  O     -127.726    -173.559     130.069
  N     -127.028    -175.645     129.533
  C     -126.279    -176.542     128.830
  O     -126.273    -177.744     129.079
  C     -125.455    -175.979     127.744
  C     -125.504    -174.660     127.515
  O     -122.124    -170.894     123.155
  O     -123.014    -173.120     124.154
  H     -127.155    -170.814     130.015
  H     -122.226    -173.075     124.750
  H     -127.592    -176.008     130.287
  H     -124.838    -176.661     127.175
  H     -124.906    -174.222     126.718
  H     -127.384    -172.059     128.004
  H     -125.383    -172.187     130.054
  H     -123.665    -172.080     128.421
  H     -125.366    -169.996     126.953
  H     -123.148    -169.989     126.037
  H     -123.026    -171.768     126.111
  P     -122.966    -170.132     130.469
  C     -124.000    -169.752     132.844
  O     -124.136    -169.611     131.435
  O     -121.588    -169.589     130.674
  O     -122.925    -171.714     130.819
  H     -122.159    -171.854     131.416
  H     -124.867    -169.354     133.328
  H     -123.132    -169.220     133.174
  H     -123.899    -170.788     133.091

 6  7  8  9  10  11  12  13  14  15  16  26  31  32  33  34  35 0
 6-311+G(2d,p)
 ****
 36  37 0
 6-311+G(2d,p)
 ****
 1  2  3  4  5  17  18  19  20  21  22  23  24  25 0
 3-21G
 ****
 27  28  29  30  38  39  40  41  42  43  44  45 0
 3-21G
 ****


