%nproc=1
%NoSave
%Mem=1900MB
#P OB98/GEN NMR

erre ene a

0 1
  C     1031.035      61.263    -438.482
  O     1031.393      61.106    -437.125
  H     1029.955      61.402    -438.545
  H     1031.312      60.380    -439.072
  H     1031.516      62.156    -438.899
  P     1032.930      60.774    -436.781
  C     1032.526      58.229    -437.045
  O     1033.257      59.365    -437.472
  C     1033.041      56.959    -437.720
  O     1034.149      56.427    -436.932
  C     1031.992      55.838    -437.844
  O     1032.303      55.068    -439.013
  C     1032.247      55.034    -436.576
  O     1031.625      53.781    -436.637
  C     1033.781      55.072    -436.561
  N     1034.328      54.701    -435.260
  C     1034.726      53.373    -435.122
  O     1034.596      52.569    -436.058
  N     1035.231      52.947    -433.910
  C     1035.271      53.785    -432.911
  N     1035.761      53.315    -431.743
  C     1034.798      55.186    -432.995
  C     1034.350      55.569    -434.199
  O     1033.303      60.867    -435.329
  O     1033.754      61.821    -437.669
  H     1031.997      53.174    -435.963
  H     1034.104      62.526    -437.099
  H     1034.822      55.835    -432.137
  H     1033.983      56.580    -434.370
  H     1034.199      54.406    -437.316
  H     1031.846      55.546    -435.713
  H     1030.963      56.236    -437.913
  H     1033.451      57.226    -438.702
  H     1036.058      52.348    -431.710
  H     1031.478      58.396    -437.318
  H     1035.809      53.855    -430.895
  H     1032.582      58.123    -435.958
  P     1031.460      55.183    -440.377
  C     1030.022      53.071    -440.016
  O     1030.015      54.485    -440.180
  O     1032.211      54.720    -441.584
  O     1031.093      56.742    -440.522
  H     1031.048      56.968    -441.453
  H     1029.018      52.721    -439.895
  H     1030.596      52.815    -439.150
  H     1030.457      52.614    -440.880

 6  7  8  9  10  11  12  13  14  15  16  26  30  31  32  33  35 0
 6-311+G(2d,p)
 ****
 37  38 0
 6-311+G(2d,p)
 ****
 1  2  3  4  5  17  18  19  20  21  22  23  24  25 0
 3-21G
 ****
 27  28  29  34  36  39  40  41  42  43  44  45  46 0
 3-21G
 ****


