%nproc=1
%NoSave
%Mem=1900MB
#P OB98/GEN NMR

erre ene a

0 1
  C      -24.127     -49.581     129.686
  O      -25.240     -48.833     129.200
  P      -25.295     -47.261     129.504
  C      -24.714     -46.635     127.069
  O      -24.361     -46.502     128.442
  C      -24.975     -45.256     126.442
  O      -23.725     -44.518     126.391
  C      -25.495     -45.288     125.001
  O      -26.904     -45.354     124.792
  C      -25.042     -43.923     124.489
  O      -25.995     -42.916     124.881
  C      -23.721     -43.687     125.212
  N      -19.794     -41.677     122.619
  C      -20.781     -41.110     123.346
  N      -21.790     -41.717     124.004
  C      -21.711     -43.051     123.873
  C      -20.761     -43.770     123.168
  C      -19.764     -43.027     122.513
  N      -18.765     -43.603     121.764
  N      -21.011     -45.123     123.254
  C      -22.104     -45.217     123.985
  N      -22.559     -43.994     124.395
  O      -25.101     -46.864     130.928
  O      -26.767     -46.865     129.002
  H      -25.696     -42.081     124.476
  H      -27.137     -46.192     129.605
  H      -20.761     -40.026     123.403
  H      -22.599     -46.142     124.239
  H      -23.608     -42.649     125.546
  H      -24.981     -43.886     123.397
  H      -25.003     -46.082     124.427
  H      -25.673     -44.698     127.078
  H      -25.608     -47.255     126.980
  H      -18.116     -42.996     121.291
  H      -18.762     -44.604     121.627
  H      -23.905     -47.174     126.573
  P      -27.621     -46.718     124.357
  C      -29.028     -47.081     126.531
  O      -27.946     -47.489     125.724
  O      -26.881     -47.528     123.350
  O      -29.060     -46.216     123.876
  H      -29.625     -45.873     124.588
  H      -29.212     -47.851     127.286
  H      -29.933     -46.952     125.934
  H      -28.780     -46.144     127.037
  H      -24.236     -50.607     129.403
  H      -24.086     -49.507     130.753
  H      -23.224     -49.190     129.267

 3  4  5  6  7  8  9  10  11  12  22  25  29  30  31  32 0
 6-311+G(2d,p)
 ****
 33  36  37 0
 6-311+G(2d,p)
 ****
 1  2  13  14  15  16  17  18  19  20  21  23  24  26 0
 3-21G
 ****
 27  28  34  35  38  39  40  41  42  43  44  45  46  47  48 0
 3-21G
 ****


