%nproc=1
%NoSave
%Mem=1900MB
#P OB98/GEN NMR

erre ene a

0 1
  C      118.508     574.596     223.365
  O      119.921     574.751     223.408
  P      120.539     575.663     224.577
  C      122.464     576.375     222.924
  O      121.455     576.754     223.837
  C      122.886     577.569     222.061
  O      121.787     577.961     221.202
  C      123.247     578.821     222.855
  O      124.544     578.722     223.426
  C      123.112     579.906     221.785
  O      124.278     579.934     220.943
  C      121.887     579.385     220.984
  N      120.636     580.075     221.315
  C      120.098     580.882     220.325
  O      120.612     581.025     219.213
  N      118.947     581.533     220.660
  C      118.328     581.515     221.880
  O      117.317     582.162     222.139
  C      118.967     580.668     222.901
  C      120.068     579.998     222.568
  O      121.580     574.638     225.231
  O      119.505     576.201     225.513
  H      121.891     573.977     224.587
  H      124.486     579.004     220.728
  H      118.517     582.111     219.948
  H      118.511     580.635     223.879
  H      120.572     579.376     223.312
  H      122.075     579.512     219.901
  H      122.979     580.901     222.204
  H      122.509     578.990     223.648
  H      123.723     577.253     221.429
  H      122.072     575.576     222.279
  H      123.319     575.981     223.474
  P      125.084     580.023     224.205
  C      127.601     579.929     223.482
  O      126.334     580.562     223.360
  O      125.731     579.368     225.523
  O      124.011     581.043     224.476
  H      126.232     578.568     225.314
  H      128.210     580.179     222.608
  H      127.488     578.836     223.533
  H      128.104     580.283     224.385
  H      118.243     573.968     222.540
  H      118.048     575.554     223.245
  H      118.170     574.149     224.277

 3  4  5  6  7  8  9  10  11  12  13  24  28  29  30  31  32 0
 6-311+G(2d,p)
 ****
 33  34 0
 6-311+G(2d,p)
 ****
 1  2  14  15  16  17  18  19  20  21  22  23  25  26  27 0
 3-21G
 ****
 35  36  37  38  39  40  41  42  43  44  45 0
 3-21G
 ****


