%nproc=1
%NoSave
%Mem=1900MB
#P OB98/GEN NMR

erre ene a

0 1
  C      -11.992      54.511     -74.024
  O      -10.890      54.843     -73.206
  H      -12.708      53.938     -73.430
  H      -11.674      53.902     -74.873
  H      -12.487      55.420     -74.380
  P       -9.642      55.592     -73.874
  C      -10.715      57.937     -73.698
  O      -10.216      56.924     -74.557
  C      -11.074      59.199     -74.495
  O       -9.845      59.873     -74.888
  C      -11.870      58.917     -75.779
  O      -12.705      60.055     -76.025
  C      -10.758      58.836     -76.807
  O      -11.262      58.907     -78.118
  C       -9.854      59.975     -76.327
  N       -8.517      59.904     -76.894
  C       -8.267      60.726     -77.995
  O       -9.157      61.450     -78.445
  N       -7.027      60.687     -78.580
  C       -6.135      59.850     -78.145
  N       -4.933      59.850     -78.776
  C       -6.379      58.922     -77.019
  C       -7.578      59.005     -76.443
  O       -8.781      54.756     -74.761
  O       -8.813      56.155     -72.623
  H      -11.762      59.742     -78.256
  H       -8.018      55.610     -72.483
  H       -5.612      58.231     -76.707
  H       -7.852      58.363     -75.612
  H      -10.290      60.950     -76.584
  H      -10.230      57.878     -76.727
  H      -12.476      58.011     -75.714
  H      -11.616      59.890     -73.836
  H       -4.813      60.496     -79.550
  H       -9.931      58.167     -72.969
  H       -4.173      59.231     -78.540
  H      -11.600      57.579     -73.163
  P      -14.284      60.053     -75.750
  C      -14.278      61.975     -74.029
  O      -14.567      60.600     -74.271
  O      -14.951      58.748     -76.053
  O      -14.874      61.208     -76.693
  H      -15.779      60.969     -76.961
  H      -14.508      62.214     -73.012
  H      -14.869      62.584     -74.681
  H      -13.240      62.159     -74.212

 6  7  8  9  10  11  12  13  14  15  16  26  30  31  32  33  35 0
 6-311+G(2d,p)
 ****
 37  38 0
 6-311+G(2d,p)
 ****
 1  2  3  4  5  17  18  19  20  21  22  23  24  25 0
 3-21G
 ****
 27  28  29  34  36  39  40  41  42  43  44  45  46 0
 3-21G
 ****


