%nproc=1
%NoSave
%Mem=1900MB
#P OB98/GEN NMR

erre ene a

0 1
  C      318.893     847.550     351.372
  O      320.055     847.772     350.592
  H      319.193     847.335     352.399
  H      318.336     846.691     350.978
  H      318.256     848.438     351.374
  P      319.822     848.137     349.050
  C      320.977     845.855     348.540
  O      319.913     846.752     348.238
  C      320.712     844.503     347.895
  O      319.561     843.882     348.516
  C      320.377     844.581     346.403
  O      321.526     844.750     345.595
  C      319.675     843.247     346.194
  O      320.624     842.186     345.980
  C      318.932     843.047     347.514
  N      314.609     842.010     344.998
  C      315.845     841.461     344.932
  N      316.942     841.781     345.653
  C      316.659     842.771     346.522
  C      315.450     843.417     346.705
  C      314.388     843.001     345.896
  N      313.136     843.577     345.932
  N      315.565     844.399     347.672
  C      316.822     844.341     348.072
  N      317.518     843.362     347.411
  O      321.178     848.898     348.647
  O      318.616     848.968     348.768
  H      321.296     842.285     346.676
  H      321.026     849.859     348.660
  H      315.974     840.663     344.212
  H      317.275     844.977     348.823
  H      319.004     842.009     347.870
  H      319.015     843.284     345.321
  H      319.658     845.390     346.226
  H      321.584     843.853     348.059
  H      321.060     845.733     349.624
  H      321.913     846.282     348.162
  H      312.440     843.268     345.286
  H      312.996     844.389     346.519
  P      321.305     845.028     344.032
  C      322.430     842.772     343.347
  O      321.269     843.603     343.297
  O      322.689     845.663     343.564
  O      320.152     845.912     343.724
  H      322.533     846.348     342.873
  H      322.242     841.864     342.812
  H      322.662     842.544     344.366
  H      323.256     843.285     342.900

 6  7  8  9  10  11  12  13  14  15  25  28  32  33  34  35 0
 6-311+G(2d,p)
 ****
 36  37  40 0
 6-311+G(2d,p)
 ****
 1  2  3  4  5  16  17  18  19  20  21  22  23  24 0
 3-21G
 ****
 26  27  29  30  31  38  39 41  42  43  44  45  46  47  48 0
 3-21G
 ****


