%nproc=1
%NoSave
%Mem=1900MB
#P OB98/GEN NMR

erre ene a

0 1
  C     -165.415     -21.092      -1.384
  O     -165.836     -22.454      -1.320
  P     -166.517     -22.980       0.031
  C     -164.443     -23.182       1.569
  O     -165.645     -22.467       1.276
  C     -163.908     -22.799       2.955
  O     -165.012     -22.784       3.897
  C     -162.874     -23.776       3.537
  O     -161.499     -23.560       3.242
  C     -163.041     -23.515       5.037
  O     -162.277     -22.365       5.425
  C     -164.529     -23.215       5.186
  N     -166.282     -25.683       9.316
  C     -165.545     -24.558       9.185
  N     -165.122     -23.969       8.049
  C     -165.537     -24.649       6.972
  C     -166.305     -25.804       6.957
  C     -166.680     -26.334       8.195
  N     -167.422     -27.488       8.335
  N     -166.539     -26.219       5.651
  C     -165.910     -25.328       4.908
  N     -165.302     -24.357       5.644
  O     -166.879     -24.433       0.061
  O     -167.836     -22.065       0.137
  H     -161.341     -22.574       5.228
  H     -168.566     -22.600       0.488
  H     -165.255     -24.069      10.111
  H     -165.864     -25.359       3.825
  H     -164.719     -22.399       5.897
  H     -162.677     -24.356       5.647
  H     -163.146     -24.807       3.309
  H     -163.478     -21.784       2.913
  H     -163.696     -22.953       0.804
  H     -167.611     -27.819       9.273
  H     -167.681     -28.008       7.516
  H     -164.671     -24.245       1.482
  P     -160.800     -24.256       1.977
  C     -159.822     -26.365       3.194
  O     -160.783     -25.827       2.303
  O     -159.468     -23.689       1.595
  O     -161.920     -24.136       0.853
  H     -162.718     -24.679       1.005
  H     -160.111     -27.386       3.451
  H     -159.772     -25.771       4.117
  H     -158.847     -26.380       2.710
  H     -164.983     -20.897      -2.343
  H     -164.688     -20.907      -0.621
  H     -166.258     -20.451      -1.235

 3  4  5  6  7  8  9  10  11  12  22  25  29  30  31  32 0
 6-311+G(2d,p)
 ****
 33  36  37 0
 6-311+G(2d,p)
 ****
 1  2  13  14  15  16  17  18  19  20  21  23  24  26 0
 3-21G
 ****
 27  28  34  35  38  39  40  41  42  43  44  45  46  47  48 0
 3-21G
 ****


