%nproc=1
%NoSave
%Mem=1900MB
#P OB98/GEN NMR

erre ene a

0 1
  C     -664.769    -667.794    -722.171
  O     -663.995    -668.963    -721.911
  P     -664.088    -669.626    -720.458
  C     -663.484    -672.104    -721.143
  O     -663.106    -670.904    -720.486
  C     -662.406    -673.164    -720.978
  O     -661.196    -672.730    -721.686
  C     -661.976    -673.447    -719.519
  O     -661.680    -674.854    -719.432
  C     -660.722    -672.619    -719.360
  O     -659.901    -673.080    -718.311
  C     -660.102    -672.775    -720.772
  N     -659.128    -671.724    -721.072
  C     -657.837    -671.861    -720.565
  O     -657.488    -672.802    -719.843
  N     -656.961    -670.857    -720.884
  C     -657.251    -669.714    -721.591
  O     -656.426    -668.853    -721.827
  C     -658.631    -669.607    -722.066
  C     -659.485    -670.604    -721.801
  O     -665.544    -670.266    -720.490
  O     -663.830    -668.674    -719.330
  H     -665.796    -670.605    -721.362
  H     -659.011    -672.710    -718.423
  H     -656.008    -670.961    -720.549
  H     -658.912    -668.717    -722.609
  H     -660.524    -670.531    -722.142
  H     -659.626    -673.756    -720.862
  H     -661.001    -671.574    -719.163
  H     -662.786    -673.178    -718.815
  H     -662.741    -674.091    -721.482
  H     -663.644    -671.892    -722.206
  H     -664.447    -672.451    -720.727
  P     -662.556    -675.750    -718.416
  C     -661.294    -677.964    -718.998
  O     -661.669    -677.017    -718.018
  O     -663.644    -676.367    -719.420
  O     -663.180    -674.985    -717.293
  H     -663.241    -676.734    -720.228
  H     -660.435    -678.552    -718.614
  H     -660.991    -677.479    -719.933
  H     -662.130    -678.655    -719.193
  H     -664.601    -667.472    -723.177
  H     -664.479    -667.017    -721.495
  H     -665.807    -668.016    -722.036

 3  4  5  6  7  8  9  10  11  12  13  24  28  29  30  31  32 0
 6-311+G(2d,p)
 ****
 33  34 0
 6-311+G(2d,p)
 ****
 1  2  14  15  16  17  18  19  20  21  22  23  25  26  27 0
 3-21G
 ****
 35  36  37  38  39  40  41  42  43  44  45 0
 3-21G
 ****


