%nproc=1
%NoSave
%Mem=1900MB
#P OB98/GEN NMR

erre ene a

0 1
  C      292.346      39.646      33.710
  O      292.726      40.895      34.310
  P      291.589      41.987      34.631
  C      290.886      40.862      36.886
  O      291.349      42.026      36.217
  C      289.808      41.235      37.907
  O      289.215      40.045      38.476
  C      290.319      42.031      39.098
  O      290.551      43.391      38.769
  C      289.188      41.835      40.101
  O      288.115      42.760      39.854
  C      288.742      40.391      39.797
  N      289.209      39.435      40.798
  C      288.527      38.226      40.862
  O      287.543      37.969      40.170
  N      288.995      37.325      41.781
  C      290.011      37.538      42.667
  O      290.371      36.697      43.482
  C      290.639      38.864      42.607
  C      290.213      39.740      41.693
  O      290.263      41.247      34.113
  O      291.753      43.309      33.960
  H      288.440      43.642      40.118
  H      289.604      41.913      33.839
  H      288.532      36.431      41.824
  H      291.434      39.082      43.308
  H      290.669      40.724      41.635
  H      287.648      40.338      39.747
  H      289.513      41.990      41.134
  H      291.232      41.569      39.494
  H      289.019      41.791      37.383
  H      291.724      40.389      37.408
  H      290.490      40.159      36.148
  P      292.008      43.976      39.103
  C      293.514      42.505      37.554
  O      292.871      43.742      37.774
  O      292.543      42.883      40.145
  O      291.971      45.371      39.628
  H      292.209      41.993      39.945
  H      292.941      41.674      37.971
  H      294.507      42.528      38.010
  H      293.624      42.352      36.476
  H      293.216      39.040      33.565
  H      291.879      39.832      32.765
  H      291.659      39.136      34.353

 3  4  5  6  7  8  9  10  11  12  13  23  28  29  30  31  32 0
 6-311+G(2d,p)
 ****
 33  34 0
 6-311+G(2d,p)
 ****
 1  2  14  15  16  17  18  19  20  21  22  24  25  26 0
 3-21G
 ****
 27  35  36  37  38  39  40  41  42  43  44  45 0
 3-21G
 ****


