%nproc=1
%NoSave
%Mem=1900MB
#P OB98/GEN NMR

erre ene a

0 1
  C       -8.232     -29.193      28.199
  O       -7.179     -29.327      27.260
  P       -6.453     -27.981      26.764
  C       -8.196     -27.582      24.880
  O       -7.587     -27.085      26.066
  C       -8.841     -26.455      24.071
  O       -9.843     -25.804      24.891
  C       -7.857     -25.389      23.589
  O       -8.273     -24.963      22.292
  C       -8.061     -24.249      24.571
  O       -7.677     -22.995      24.010
  C       -9.559     -24.389      24.884
  N       -9.917     -23.765      26.155
  C      -10.316     -22.427      26.111
  O      -10.276     -21.806      25.048
  N      -10.697     -21.810      27.277
  C      -10.585     -22.443      28.404
  N      -10.977     -21.791      29.531
  C      -10.052     -23.816      28.508
  C       -9.761     -24.417      27.355
  O       -5.569     -28.486      25.530
  O       -5.631     -27.296      27.807
  H       -7.691     -22.323      24.729
  H       -4.748     -27.964      25.453
  H       -9.944     -24.286      29.475
  H       -9.386     -25.433      27.332
  H      -10.164     -23.933      24.089
  H       -7.462     -24.423      25.473
  H       -6.825     -25.751      23.547
  H       -9.364     -26.903      23.217
  H      -11.326     -20.845      29.435
  H       -8.978     -28.296      25.154
  H      -10.926     -22.204      30.452
  H       -7.448     -28.109      24.280
  P       -7.151     -24.840      21.153
  C       -6.911     -22.289      21.326
  O       -6.296     -23.542      21.550
  O       -8.011     -24.288      19.915
  O       -6.388     -26.064      20.774
  H       -7.446     -24.228      19.123
  H       -6.283     -21.507      21.763
  H       -7.896     -22.255      21.797
  H       -7.001     -22.105      20.251
  H       -8.621     -30.160      28.439
  H       -9.010     -28.590      27.779
  H       -7.860     -28.728      29.088

 3  4  5  6  7  8  9  10  11  12  13  21  23  27  28  29  30  32 0
 6-311+G(2d,p)
 ****
 34  35 0
 6-311+G(2d,p)
 ****
 1  2  14  15  16  17  18  19  20  22  24  25  26 0
 3-21G
 ****
 31  33  36  37  38  39  40  41  42  43  44  45  46 0
 3-21G
 ****


