%nproc=1
%NoSave
%Mem=1900MB
#P OB98/GEN NMR

erre ene a

0 1
  C        1.939    -246.539    -605.088
  O        1.758    -246.658    -606.481
  H        2.988    -246.764    -604.856
  H        1.309    -247.260    -604.557
  H        1.717    -245.527    -604.751
  P        0.296    -246.423    -607.107
  C       -0.306    -248.859    -607.670
  O       -0.529    -247.774    -606.777
  C       -1.305    -249.990    -607.414
  O       -0.830    -250.817    -606.313
  C       -2.717    -249.505    -607.035
  O       -3.694    -250.231    -607.793
  C       -2.846    -249.868    -605.569
  O       -4.199    -250.028    -605.145
  C       -1.976    -251.137    -605.507
  N       -1.622    -251.485    -604.140
  C       -2.482    -252.380    -603.483
  O       -3.476    -252.822    -604.075
  N       -2.239    -252.700    -602.175
  C       -1.244    -252.141    -601.554
  N       -1.072    -252.490    -600.249
  C       -0.318    -251.166    -602.193
  C       -0.564    -250.905    -603.481
  O        0.288    -246.019    -608.546
  O       -0.394    -245.346    -606.144
  H       -4.679    -249.182    -605.281
  H       -1.119    -244.900    -606.638
  H        0.481    -250.738    -601.629
  H        0.055    -250.202    -604.027
  H       -2.491    -251.989    -605.967
  H       -2.390    -249.077    -604.957
  H       -2.861    -248.436    -607.197
  H       -1.338    -250.646    -608.297
  H       -1.729    -253.139    -599.842
  H        0.715    -249.214    -607.547
  H       -0.347    -252.092    -599.654
  H       -0.449    -248.498    -608.696
  P       -4.139    -249.569    -609.195
  C       -6.611    -248.864    -608.772
  O       -5.251    -248.450    -608.882
  O       -4.957    -250.738    -609.915
  O       -2.985    -249.101    -610.026
  H       -4.451    -251.075    -610.677
  H       -7.227    -248.014    -608.563
  H       -6.704    -249.575    -607.978
  H       -6.923    -249.313    -609.692

 6  7  8  9  10  11  12  13  14  15  16  26  30  31  32  33  35 0
 6-311+G(2d,p)
 ****
 37  38 0
 6-311+G(2d,p)
 ****
 1  2  3  4  5  17  18  19  20  21  22  23  24  25 0
 3-21G
 ****
 27  28  29  34  36  39  40  41  42  43  44  45  46 0
 3-21G
 ****


