%nproc=1
%NoSave
%Mem=1900MB
#P OB98/GEN NMR

erre ene a

0 1
  C     -207.431    -454.984    -344.198
  O     -208.425    -454.349    -344.990
  P     -208.637    -452.766    -344.809
  C     -210.265    -453.132    -342.814
  O     -209.087    -452.500    -343.289
  C     -210.441    -452.893    -341.312
  O     -211.736    -453.405    -340.888
  C     -209.376    -453.590    -340.456
  O     -209.104    -452.778    -339.296
  C     -210.076    -454.846    -339.969
  O     -209.485    -455.344    -338.774
  C     -211.504    -454.337    -339.805
  N     -214.998    -456.790    -337.098
  C     -214.382    -455.585    -336.847
  N     -214.688    -454.994    -335.668
  N     -213.564    -455.003    -337.673
  C     -213.354    -455.711    -338.816
  C     -213.915    -456.915    -339.182
  C     -214.817    -457.558    -338.249
  O     -215.374    -458.636    -338.400
  N     -213.488    -457.314    -340.425
  C     -212.632    -456.370    -340.794
  N     -212.491    -455.397    -339.832
  O     -209.974    -452.496    -345.648
  O     -207.505    -451.928    -345.304
  H     -209.508    -454.617    -338.119
  H     -209.752    -452.054    -346.489
  H     -215.622    -457.207    -336.421
  H     -212.082    -456.358    -341.728
  H     -211.633    -453.781    -338.864
  H     -210.007    -455.629    -340.738
  H     -215.259    -455.421    -334.949
  H     -208.436    -453.802    -340.979
  H     -214.212    -454.121    -335.430
  H     -210.447    -451.815    -341.121
  H     -210.207    -454.198    -343.003
  H     -211.135    -452.733    -343.365
  P     -207.573    -452.772    -338.788
  C     -207.965    -454.119    -336.594
  O     -207.401    -454.080    -337.887
  O     -207.547    -451.573    -337.723
  O     -206.567    -452.588    -339.881
  H     -206.643    -451.207    -337.646
  H     -208.731    -454.907    -336.567
  H     -208.422    -453.172    -336.315
  H     -207.181    -454.360    -335.872
  H     -207.406    -456.029    -344.427
  H     -207.662    -454.851    -343.162
  H     -206.476    -454.550    -344.409

 3  4  5  6  7  8  9  10  11  12  23  26  30  31 0
 6-311+G(2d,p)
 ****
 33  35  36  37  38 0
 6-311+G(2d,p)
 ****
 1  2  13  14  15  16  17  18  19  20  21  22  24  25 0
 3-21G
 ****
 27  28  29  32  34  39  40  41  42  43  44  45  46  47  48  49 0
 3-21G
 ****


