%nproc=1
%NoSave
%Mem=1900MB
#P OB98/GEN NMR

erre ene a

0 1
  C      606.174     -45.304     178.687
  O      606.235     -45.788     177.363
  H      606.418     -46.121     179.369
  H      605.163     -44.951     178.907
  H      606.895     -44.495     178.836
  P      606.110     -44.696     176.188
  C      608.679     -44.617     175.799
  O      607.503     -43.899     176.159
  C      609.837     -43.652     175.574
  O      609.543     -42.760     174.472
  C      610.154     -42.762     176.769
  O      610.975     -43.428     177.720
  C      610.914     -41.635     176.083
  O      612.257     -42.062     175.785
  C      610.112     -41.460     174.787
  N      609.009     -36.560     175.480
  C      610.234     -37.199     175.461
  N      611.320     -36.425     175.672
  N      610.382     -38.484     175.263
  C      609.210     -39.133     175.084
  C      607.939     -38.610     175.078
  C      607.783     -37.187     175.289
  O      606.727     -36.568     175.287
  N      606.993     -39.581     174.849
  C      607.695     -40.693     174.741
  N      609.038     -40.476     174.883
  O      605.085     -43.621     176.792
  O      605.638     -45.217     174.875
  H      612.736     -41.273     175.468
  H      604.528     -43.275     176.066
  H      608.953     -35.567     175.649
  H      607.272     -41.673     174.560
  H      610.746     -41.165     173.945
  H      610.993     -40.742     176.703
  H      611.274     -35.439     175.876
  H      609.243     -42.361     177.224
  H      612.236     -36.866     175.630
  H      610.720     -44.242     175.283
  H      608.486     -45.179     174.878
  H      608.926     -45.323     176.598
  P      611.123     -42.752     179.173
  C      609.164     -43.774     180.545
  O      609.632     -42.678     179.765
  O      611.457     -41.229     178.832
  O      612.150     -43.377     180.054
  H      611.922     -40.811     179.582
  H      608.162     -43.581     180.867
  H      609.795     -43.899     181.400
  H      609.183     -44.666     179.954

 6  7  8  9  10  11  12  13  14  15  26  29  33  34 0
 6-311+G(2d,p)
 ****
 36  38  39  40  41 0
 6-311+G(2d,p)
 ****
 1  2  3  4  5  16  17  18  19  20  21  22  23  24  25 0
 3-21G
 ****
 27  28  30  31  32  35  37  42  43  44  45  46  47 0
 3-21G
 ****
 48  49 0
 3-21G
 ****


