%nproc=1
%NoSave
%Mem=1900MB
#P OB98/GEN NMR

erre ene a

0 1
  C      249.450     347.071      42.049
  O      249.416     346.253      40.896
  H      250.443     347.511      42.175
  H      248.716     347.872      41.933
  H      249.192     346.481      42.934
  P      250.501     345.073      40.827
  C      250.199     342.750      39.720
  O      249.679     343.709      40.627
  C      249.303     341.518      39.685
  O      249.193     340.940      41.003
  C      247.867     341.786      39.243
  O      247.761     341.909      37.831
  C      247.179     340.527      39.748
  O      247.402     339.447      38.823
  C      247.918     340.249      41.066
  N      244.379     339.023      44.581
  C      244.872     338.340      43.521
  N      245.800     338.734      42.625
  C      246.249     339.969      42.910
  C      245.842     340.780      43.951
  C      244.857     340.269      44.813
  N      244.349     340.977      45.878
  N      246.533     341.972      43.937
  C      247.343     341.884      42.905
  N      247.204     340.693      42.246
  O      251.032     344.966      42.336
  O      251.624     345.292      39.867
  H      247.127     339.770      37.944
  H      251.984     344.743      42.322
  H      244.466     337.343      43.374
  H      248.045     342.652      42.601
  H      248.143     339.182      41.185
  H      246.099     340.643      39.862
  H      247.450     342.657      39.756
  H      249.778     340.774      39.032
  H      251.203     342.453      40.040
  H      243.800     340.491      46.565
  H      244.719     341.908      46.051
  H      250.263     343.204      38.725
  P      246.571     342.823      37.258
  C      246.006     343.720      34.888
  O      247.005     343.206      35.761
  O      246.750     344.198      38.057
  O      245.201     342.257      37.423
  H      245.898     344.670      38.102
  H      246.440     343.928      33.932
  H      245.602     344.621      35.300
  H      245.225     342.998      34.775

 6  7  8  9  10  11  12  13  14  15  25  28  32  33  34  35 0
 6-311+G(2d,p)
 ****
 36  39  40 0
 6-311+G(2d,p)
 ****
 1  2  3  4  5  16  17  18  19  20  21  22  23  24 0
 3-21G
 ****
 26  27  29  30  31  37  38  41  42  43  44  45  46  47  48 0
 3-21G
 ****


