%nproc=1
%NoSave
%Mem=1900MB
#P OB98/GEN NMR

erre ene a

0 1
  C      386.825    -330.962     251.188
  O      387.063    -329.599     250.907
  H      386.293    -331.034     252.142
  H      387.770    -331.507     251.275
  H      386.205    -331.413     250.410
  P      387.893    -329.220     249.589
  C      389.875    -328.520     251.089
  O      389.448    -329.306     249.982
  C      391.365    -328.752     251.359
  O      392.093    -328.368     250.164
  C      391.893    -327.916     252.534
  O      392.566    -328.693     253.520
  C      392.678    -326.803     251.849
  O      393.711    -326.244     252.633
  C      393.148    -327.466     250.544
  N      393.432    -326.518     249.470
  C      394.719    -325.992     249.406
  O      395.640    -326.278     250.169
  N      394.941    -325.089     248.395
  C      394.028    -324.677     247.473
  O      394.284    -323.874     246.589
  C      392.681    -325.254     247.608
  C      392.445    -326.132     248.586
  O      387.490    -327.953     248.915
  O      387.698    -330.486     248.629
  H      394.204    -325.613     252.072
  H      387.035    -330.274     247.941
  H      395.872    -324.712     248.333
  H      391.925    -324.938     246.901
  H      391.465    -326.582     248.710
  H      394.051    -328.050     250.724
  H      391.984    -325.991     251.603
  H      391.059    -327.467     253.092
  H      391.535    -329.825     251.517
  H      389.280    -328.813     251.957
  H      389.700    -327.458     250.877
  P      391.922    -329.161     254.906
  C      393.297    -327.624     256.526
  O      392.044    -327.950     255.944
  O      392.340    -330.510     255.387
  O      390.340    -329.222     254.578
  H      389.977    -329.948     255.124
  H      393.177    -326.792     257.188
  H      393.993    -327.368     255.754
  H      393.666    -328.466     257.074

 6  7  8  9  10  11  12  13  14  15  16  26  31  32  33  34  35 0
 6-311+G(2d,p)
 ****
 36  37 0
 6-311+G(2d,p)
 ****
 1  2  3  4  5  17  18  19  20  21  22  23  24  25 0
 3-21G
 ****
 27  28  29  30  38  39  40  41  42  43  44  45 0
 3-21G
 ****


