%nproc=1
%NoSave
%Mem=1900MB
#P OB98/GEN NMR

erre ene a

0 1
  C       27.772      85.271       5.829
  O       27.023      84.663       6.884
  P       27.738      83.466       7.682
  C       26.912      84.241      10.014
  O       26.929      83.203       9.044
  C       25.977      83.913      11.184
  O       24.599      83.819      10.738
  C       26.316      82.595      11.888
  O       26.003      82.756      13.275
  C       25.329      81.618      11.276
  O       25.151      80.474      12.109
  C       24.092      82.523      11.123
  N       23.124      82.010      10.158
  C       22.614      80.730      10.385
  O       23.036      80.052      11.326
  N       21.674      80.225       9.524
  C       21.310      80.920       8.488
  N       20.378      80.365       7.667
  C       21.866      82.251       8.173
  C       22.753      82.729       9.043
  O       29.115      84.118       8.176
  O       27.980      82.250       6.844
  H       26.038      80.098      12.302
  H       29.861      83.534       7.948
  H       21.549      82.786       7.291
  H       23.213      83.698       8.902
  H       23.579      82.636      12.084
  H       25.685      81.282      10.294
  H       27.363      82.297      11.775
  H       26.031      84.737      11.906
  H       20.014      79.452       7.922
  H       26.590      85.177       9.552
  H       20.025      80.815       6.838
  H       27.936      84.414      10.365
  P       26.940      82.029      14.352
  C       27.431      84.234      15.576
  O       26.843      82.948      15.665
  O       28.406      82.403      13.810
  O       26.793      80.556      14.548
  H       29.081      81.953      14.353
  H       27.186      84.793      16.484
  H       27.033      84.775      14.711
  H       28.515      84.146      15.500
  H       27.189      86.048       5.380
  H       28.012      84.534       5.091
  H       28.675      85.686       6.226

 3  4  5  6  7  8  9  10  11  12  13  21  23  27  28  29  30  32 0
 6-311+G(2d,p)
 ****
 34  35 0
 6-311+G(2d,p)
 ****
 1  2  14  15  16  17  18  19  20  22  24  25  26 0
 3-21G
 ****
 31  33  36  37  38  39  40  41  42  43  44  45  46 0
 3-21G
 ****


