%nproc=1
%NoSave
%Mem=1900MB
#P OB98/GEN NMR

erre ene a

0 1
  C      -14.435    -272.960     440.399
  O      -14.276    -273.444     439.084
  H      -13.797    -272.083     440.529
  H      -14.116    -273.732     441.108
  H      -15.472    -272.678     440.598
  P      -15.384    -274.428     438.484
  C      -16.052    -276.906     438.734
  O      -15.186    -275.871     439.170
  C      -16.065    -278.089     439.713
  O      -14.745    -278.675     439.792
  C      -16.424    -277.661     441.132
  O      -17.809    -277.568     441.407
  C      -15.775    -278.775     441.967
  O      -16.650    -279.909     442.078
  C      -14.535    -279.129     441.146
  N      -10.804    -279.386     444.629
  C      -11.924    -280.184     444.500
  N      -12.104    -281.134     445.446
  N      -12.797    -280.046     443.530
  C      -12.534    -278.999     442.708
  C      -11.461    -278.128     442.752
  C      -10.474    -278.330     443.796
  O       -9.467    -277.645     443.961
  N      -11.542    -277.190     441.756
  C      -12.689    -277.439     441.157
  N      -13.316    -278.548     441.684
  O      -14.887    -274.688     436.979
  O      -16.792    -273.899     438.502
  H      -16.958    -280.152     441.183
  H      -15.646    -274.911     436.415
  H      -10.147    -279.559     445.379
  H      -13.096    -276.877     440.321
  H      -14.380    -280.220     441.098
  H      -15.559    -278.442     442.983
  H      -11.523    -281.199     446.270
  H      -15.935    -276.714     441.384
  H      -13.033    -281.549     445.538
  H      -16.738    -278.867     439.340
  H      -15.700    -277.233     437.759
  H      -17.071    -276.521     438.600
  P      -18.321    -277.304     442.903
  C      -19.447    -278.781     444.739
  O      -18.760    -278.732     443.501
  O      -19.713    -276.543     442.672
  O      -17.388    -276.518     443.754
  H      -19.573    -275.575     442.748
  H      -19.662    -279.799     444.988
  H      -20.362    -278.232     444.661
  H      -18.836    -278.349     445.503

 6  7  8  9  10  11  12  13  14  15  26  29  33  34 0
 6-311+G(2d,p)
 ****
 36  38  39  40  41 0
 6-311+G(2d,p)
 ****
 1  2  3  4  5  16  17  18  19  20  21  22  23  24  25 0
 3-21G
 ****
 27  28  30  31  32  35  37  42  43  44  45  46  47 0
 3-21G
 ****
 48  49 0
 3-21G
 ****


