%nproc=1
%NoSave
%Mem=1900MB
#P OB98/GEN NMR

erre ene a

0 1
  C      959.657      54.555     -24.038
  O      960.121      55.822     -23.614
  H      959.434      54.608     -25.110
  H      958.742      54.291     -23.509
  H      960.417      53.788     -23.882
  P      960.678      55.969     -22.120
  C      958.772      57.650     -21.693
  O      959.463      56.504     -21.216
  C      957.605      57.981     -20.765
  O      956.656      56.880     -20.759
  C      958.014      58.171     -19.305
  O      958.640      59.423     -19.104
  C      956.674      57.992     -18.610
  O      955.906      59.204     -18.652
  C      956.003      56.896     -19.466
  N      956.078      55.577     -18.828
  C      955.105      55.292     -17.880
  O      954.203      56.084     -17.581
  N      955.229      54.094     -17.235
  C      956.294      53.234     -17.347
  O      956.479      52.301     -16.574
  C      957.254      53.551     -18.406
  C      957.122      54.699     -19.078
  O      961.956      56.732     -21.977
  O      960.847      54.450     -21.625
  H      961.792      54.205     -21.669
  H      956.481      59.893     -18.251
  H      954.543      53.899     -16.517
  H      958.069      52.863     -18.575
  H      957.842      54.976     -19.846
  H      954.951      57.133     -19.648
  H      956.802      57.711     -17.564
  H      958.686      57.358     -18.999
  H      957.086      58.870     -21.154
  H      958.384      57.444     -22.697
  H      959.465      58.496     -21.749
  P      959.328      59.766     -17.698
  C      957.940      61.882     -17.229
  O      958.262      60.565     -16.796
  O      960.674      60.406     -17.795
  O      959.423      58.344     -16.958
  H      960.335      58.220     -16.634
  H      957.227      62.314     -16.558
  H      957.524      61.842     -18.214
  H      958.827      62.481     -17.240

 6  7  8  9  10  11  12  13  14  15  16  27  31  32  33  34  35 0
 6-311+G(2d,p)
 ****
 36  37 0
 6-311+G(2d,p)
 ****
 1  2  3  4  5  17  18  19  20  21  22  23  24  25 0
 3-21G
 ****
 26  28  29  30  38  39  40  41  42  43  44  45 0
 3-21G
 ****


