%nproc=1
%NoSave
%Mem=1900MB
#P OB98/GEN NMR

erre ene a

0 1
  C       70.693      34.034     -13.766
  O       71.672      34.089     -12.753
  H       71.065      34.573     -14.640
  H       69.777      34.518     -13.417
  H       70.475      33.003     -14.056
  P       71.604      33.028     -11.558
  C       70.231      32.673      -9.402
  O       70.496      33.526     -10.508
  C       69.556      33.426      -8.256
  O       70.438      34.459      -7.768
  C       68.262      34.119      -8.691
  O       67.106      33.302      -8.621
  C       68.175      35.276      -7.699
  O       67.489      34.885      -6.499
  C       69.644      35.595      -7.398
  N       72.567      39.788      -7.282
  C       72.251      38.922      -6.251
  N       72.751      39.241      -5.038
  N       71.505      37.861      -6.406
  C       70.998      37.729      -7.653
  C       71.223      38.533      -8.748
  C       72.111      39.664      -8.586
  O       72.434      40.451      -9.470
  N       70.504      38.110      -9.840
  C       69.783      37.108      -9.379
  N       70.108      36.789      -8.081
  O       72.973      33.278     -10.759
  O       71.493      31.593     -11.976
  H       67.536      35.629      -5.868
  H       73.276      32.443     -10.361
  H       73.169      40.572      -7.108
  H       69.050      36.551      -9.951
  H       69.804      35.761      -6.325
  H       67.614      36.112      -8.124
  H       73.258      40.089      -4.845
  H       68.366      34.538      -9.695
  H       72.390      38.742      -4.222
  H       69.380      32.734      -7.422
  H       71.195      32.281      -9.074
  H       69.619      31.822      -9.714
  P       66.112      33.179      -9.866
  C       64.472      34.817     -11.099
  O       65.258      34.522      -9.965
  O       65.044      32.097      -9.370
  O       66.748      32.786     -11.159
  H       65.255      31.215      -9.728
  H       63.985      35.759     -10.960
  H       63.736      34.051     -11.232
  H       65.099      34.864     -11.965

 6  7  8  9  10  11  12  13  14  15  26  29  33  34 0
 6-311+G(2d,p)
 ****
 36  38  39  40  41 0
 6-311+G(2d,p)
 ****
 1  2  3  4  5  16  17  18  19  20  21  22  23  24  25 0
 3-21G
 ****
 27  28  30  31  32  35  37  42  43  44  45  46  47 0
 3-21G
 ****
 48  49 0
 3-21G
 ****


