%nproc=1
%NoSave
%Mem=1900MB
#P OB98/GEN NMR

erre ene a

0 1
  C       84.680    1088.646    -259.802
  O       85.478    1088.996    -258.694
  H       84.184    1089.548    -260.173
  H       83.912    1087.928    -259.504
  H       85.295    1088.223    -260.607
  P       86.420    1087.849    -258.076
  C       88.409    1088.583    -259.581
  O       87.542    1087.532    -259.191
  C       89.872    1088.198    -259.340
  O       90.231    1087.139    -260.275
  C       90.860    1089.351    -259.536
  O       91.879    1089.236    -258.548
  C       91.453    1089.099    -260.909
  O       92.742    1089.675    -261.076
  C       91.418    1087.569    -260.983
  N       91.406    1087.098    -262.378
  C       92.650    1087.022    -263.012
  O       93.679    1087.347    -262.422
  N       92.691    1086.628    -264.334
  C       91.583    1086.418    -264.974
  N       91.689    1086.070    -266.278
  C       90.250    1086.556    -264.357
  C       90.235    1086.886    -263.063
  O       85.501    1086.550    -258.107
  O       86.965    1088.139    -256.720
  H       93.373    1089.182    -260.512
  H       85.708    1085.949    -257.366
  H       89.349    1086.397    -264.940
  H       89.299    1087.017    -262.521
  H       92.280    1087.132    -260.476
  H       90.784    1089.534    -261.682
  H       90.385    1090.333    -259.459
  H       89.947    1087.773    -258.332
  H       92.615    1086.004    -266.675
  H       88.182    1089.479    -258.993
  H       90.889    1085.922    -266.894
  H       88.252    1088.814    -260.644
  P       92.178    1090.540    -257.658
  C       90.536    1090.070    -255.701
  O       90.858    1090.883    -256.816
  O       92.276    1091.712    -258.736
  O       93.431    1090.424    -256.844
  H       93.200    1092.007    -258.822
  H       89.634    1090.426    -255.249
  H       91.333    1090.111    -254.988
  H       90.398    1089.059    -256.024

 6  7  8  9  10  11  12  13  14  15  16  26  30  31  32  33  35 0
 6-311+G(2d,p)
 ****
 37  38 0
 6-311+G(2d,p)
 ****
 1  2  3  4  5  17  18  19  20  21  22  23  24  25 0
 3-21G
 ****
 27  28  29  34  36  39  40  41  42  43  44  45  46 0
 3-21G
 ****


