%nproc=1
%NoSave
%Mem=1900MB
#P OB98/GEN NMR

erre ene a

0 1
  C     -192.288    -140.831    -220.530
  O     -191.921    -140.477    -221.845
  H     -191.453    -140.605    -219.862
  H     -192.497    -141.904    -220.483
  H     -193.166    -140.272    -220.196
  P     -193.072    -140.283    -222.940
  C     -192.268    -142.392    -224.192
  O     -193.370    -141.719    -223.597
  C     -192.470    -142.607    -225.692
  O     -191.271    -143.159    -226.285
  C     -193.587    -143.606    -225.991
  O     -194.897    -143.069    -226.000
  C     -193.195    -144.112    -227.376
  O     -193.695    -143.240    -228.401
  C     -191.664    -144.066    -227.331
  N     -188.634    -147.778    -229.114
  C     -189.035    -146.608    -229.733
  N     -188.620    -146.436    -231.009
  N     -189.784    -145.707    -229.156
  C     -190.198    -146.058    -227.915
  C     -189.882    -147.196    -227.203
  C     -189.005    -148.163    -227.834
  O     -188.628    -149.219    -227.331
  N     -190.489    -147.204    -225.970
  C     -191.230    -146.113    -225.967
  N     -191.068    -145.372    -227.116
  O     -192.331    -139.505    -224.133
  O     -194.279    -139.528    -222.475
  H     -193.473    -143.626    -229.268
  H     -192.977    -138.983    -224.641
  H     -188.034    -148.423    -229.599
  H     -191.878    -145.803    -225.154
  H     -191.245    -143.672    -228.267
  H     -193.606    -145.105    -227.577
  H     -188.142    -147.153    -231.532
  H     -193.542    -144.450    -225.290
  H     -189.103    -145.736    -231.576
  H     -192.653    -141.639    -226.174
  H     -192.177    -143.357    -223.685
  H     -191.341    -141.841    -224.005
  P     -196.154    -144.010    -225.688
  C     -197.073    -143.875    -228.120
  O     -196.588    -144.688    -227.074
  O     -197.322    -142.954    -225.396
  O     -195.963    -144.957    -224.551
  H     -197.420    -142.813    -224.434
  H     -197.314    -144.486    -228.964
  H     -196.322    -143.164    -228.397
  H     -197.950    -143.358    -227.792

 6  7  8  9  10  11  12  13  14  15  26  29  33  34 0
 6-311+G(2d,p)
 ****
 36  38  39  40  41 0
 6-311+G(2d,p)
 ****
 1  2  3  4  5  16  17  18  19  20  21  22  23  24  25 0
 3-21G
 ****
 27  28  30  31  32  35  37  42  43  44  45  46  47 0
 3-21G
 ****
 48  49 0
 3-21G
 ****


