%nproc=1
%NoSave
%Mem=1900MB
#P OB98/GEN NMR

erre ene a

0 1
  C     -312.702     313.742     167.650
  O     -313.976     313.604     168.244
  H     -312.429     312.792     167.180
  H     -311.961     313.979     168.419
  H     -312.701     314.523     166.887
  P     -314.771     314.922     168.687
  C     -317.142     313.983     168.281
  O     -316.203     314.453     169.239
  C     -318.224     313.122     168.946
  O     -317.704     311.794     169.191
  C     -318.617     313.710     170.309
  O     -319.960     313.401     170.660
  C     -317.676     312.989     171.265
  O     -318.148     312.983     172.610
  C     -317.602     311.604     170.615
  N     -315.465     307.753     173.182
  C     -316.756     308.230     173.248
  N     -317.586     307.618     174.123
  N     -317.197     309.234     172.526
  C     -316.236     309.798     171.747
  C     -314.917     309.428     171.618
  C     -314.456     308.294     172.391
  O     -313.316     307.838     172.389
  N     -314.247     310.253     170.748
  C     -315.153     311.124     170.358
  N     -316.386     310.882     170.924
  O     -315.150     315.623     167.296
  O     -314.025     315.861     169.587
  H     -318.359     313.905     172.849
  H     -315.275     316.580     167.417
  H     -315.183     306.968     173.745
  H     -314.979     311.942     169.663
  H     -318.447     310.986     170.938
  H     -316.715     313.518     171.263
  H     -317.251     306.971     174.815
  H     -318.477     314.790     170.343
  H     -318.429     308.133     174.395
  H     -319.085     313.009     168.270
  H     -316.587     313.387     167.545
  H     -317.592     314.824     167.745
  P     -321.001     314.619     170.759
  C     -322.946     313.511     169.385
  O     -322.483     314.020     170.625
  O     -320.771     315.416     169.385
  O     -320.800     315.490     171.954
  H     -320.279     316.241     169.556
  H     -323.950     313.159     169.496
  H     -322.318     312.703     169.074
  H     -322.919     314.287     168.649

 6  7  8  9  10  11  12  13  14  15  26  29  33  34 0
 6-311+G(2d,p)
 ****
 36  38  39  40  41 0
 6-311+G(2d,p)
 ****
 1  2  3  4  5  16  17  18  19  20  21  22  23  24  25 0
 3-21G
 ****
 27  28  30  31  32  35  37  42  43  44  45  46  47 0
 3-21G
 ****
 48  49 0
 3-21G
 ****


