%nproc=1
%NoSave
%Mem=1900MB
#P OB98/GEN NMR

erre ene a

0 1
  C      -45.058    -133.600      25.574
  O      -45.441    -132.384      26.182
  H      -44.990    -134.369      26.348
  H      -44.082    -133.502      25.092
  H      -45.808    -133.910      24.841
  P      -45.500    -131.063      25.271
  C      -43.162    -130.457      26.214
  O      -43.955    -130.665      25.055
  C      -42.246    -129.251      26.016
  O      -41.272    -129.503      24.981
  C      -42.954    -127.971      25.580
  O      -43.686    -127.347      26.621
  C      -41.756    -127.148      25.132
  O      -41.061    -126.646      26.287
  C      -40.910    -128.219      24.400
  N      -41.134    -128.232      22.955
  C      -40.680    -127.116      22.240
  O      -40.126    -126.184      22.822
  N      -40.900    -127.063      20.884
  C      -41.534    -128.030      20.297
  N      -41.767    -127.906      18.960
  C      -42.013    -129.231      21.007
  C      -41.788    -129.266      22.319
  O      -46.382    -129.959      25.761
  O      -45.900    -131.599      23.817
  H      -41.708    -126.140      26.811
  H      -45.960    -130.817      23.217
  H      -42.544    -130.005      20.470
  H      -42.126    -130.108      22.913
  H      -39.843    -128.069      24.591
  H      -42.030    -126.286      24.516
  H      -43.594    -128.158      24.709
  H      -41.688    -129.103      26.951
  H      -41.462    -127.051      18.515
  H      -42.582    -131.365      26.397
  H      -42.479    -128.462      18.494
  H      -43.804    -130.264      27.079
  P      -44.999    -126.512      26.219
  C      -43.849    -124.257      26.836
  O      -44.506    -125.031      25.847
  O      -45.743    -126.323      27.624
  O      -45.877    -127.143      25.186
  H      -46.407    -127.023      27.768
  H      -43.588    -123.303      26.427
  H      -42.962    -124.763      27.154
  H      -44.501    -124.120      27.673

 6  7  8  9  10  11  12  13  14  15  16  26  30  31  32  33  35 0
 6-311+G(2d,p)
 ****
 37  38 0
 6-311+G(2d,p)
 ****
 1  2  3  4  5  17  18  19  20  21  22  23  24  25 0
 3-21G
 ****
 27  28  29  34  36  39  40  41  42  43  44  45  46 0
 3-21G
 ****


