%nproc=1
%NoSave
%Mem=1900MB
#P OB98/GEN NMR

erre ene a

0 1
  C       38.620      95.566      39.540
  O       38.252      95.226      40.878
  P       36.793      94.623      41.155
  C       35.657      96.936      41.168
  O       35.695      95.645      40.578
  C       34.240      97.521      41.107
  O       33.895      97.888      39.740
  C       33.173      96.530      41.589
  O       32.093      97.224      42.234
  C       32.642      95.949      40.293
  O       31.349      95.375      40.464
  C       32.688      97.181      39.392
  N       30.569      98.221      34.848
  C       30.413      98.791      36.064
  N       31.028      98.476      37.223
  C       31.894      97.465      37.042
  C       32.165      96.793      35.860
  C       31.451      97.203      34.722
  N       31.588      96.604      33.491
  N       33.111      95.807      36.062
  C       33.368      95.854      37.353
  N       32.684      96.858      37.980
  O       36.542      94.150      42.547
  O       36.709      93.407      40.112
  H       30.972      95.235      39.576
  H       36.290      92.641      40.550
  H       29.695      99.605      36.111
  H       34.026      95.179      37.881
  H       31.844      97.855      39.581
  H       33.320      95.167      39.932
  H       33.546      95.754      42.267
  H       34.208      98.441      41.702
  H       36.356      97.597      40.651
  H       30.950      96.888      32.763
  H       32.128      95.753      33.420
  H       36.016      96.868      42.201
  P       31.713      96.718      43.715
  C       30.221      94.631      43.216
  O       31.482      95.139      43.589
  O       30.608      97.499      44.345
  O       33.113      96.854      44.478
  H       33.868      96.447      44.022
  H       30.308      93.553      43.063
  H       29.877      95.087      42.284
  H       29.493      94.815      44.010
  H       39.618      95.952      39.532
  H       37.948      96.308      39.163
  H       38.570      94.693      38.923

 3  4  5  6  7  8  9  10  11  12  22  25  29  30  31  32 0
 6-311+G(2d,p)
 ****
 33  36  37 0
 6-311+G(2d,p)
 ****
 1  2  13  14  15  16  17  18  19  20  21  23  24  26 0
 3-21G
 ****
 27  28  34  35  38  39  40  41  42  43  44  45  46  47  48 0
 3-21G
 ****


