%nproc=1
%NoSave
%Mem=1900MB
#P OB98/GEN NMR

erre ene a

0 1
  C      210.922     -84.337     180.730
  O      209.912     -83.883     179.852
  H      210.480     -84.845     181.591
  H      211.563     -85.040     180.193
  H      211.531     -83.493     181.069
  P      208.800     -82.916     180.486
  C      207.599     -82.352     178.259
  O      207.520     -83.000     179.522
  C      207.264     -83.332     177.143
  O      208.193     -84.437     177.153
  C      205.881     -83.969     177.245
  O      204.859     -83.095     176.792
  C      206.052     -85.163     176.317
  O      205.897     -84.738     174.948
  C      207.506     -85.580     176.575
  N      207.724     -90.697     176.949
  C      207.586     -89.877     175.883
  N      207.526     -88.529     175.858
  C      207.639     -88.025     177.099
  C      207.784     -88.735     178.280
  C      207.820     -90.136     178.176
  N      207.944     -90.965     179.271
  N      207.884     -87.880     179.354
  C      207.799     -86.672     178.836
  N      207.644     -86.707     177.476
  O      209.378     -81.446     180.206
  O      208.523     -83.125     181.938
  H      206.451     -83.941     174.839
  H      209.146     -80.867     180.956
  H      207.518     -90.368     174.915
  H      207.850     -85.750     179.402
  H      208.028     -85.823     175.642
  H      205.322     -85.956     176.497
  H      205.684     -84.327     178.262
  H      207.378     -82.806     176.186
  H      208.614     -81.971     178.108
  H      208.159     -91.936     179.121
  H      208.023     -90.535     180.186
  H      206.898     -81.511     178.251
  P      203.543     -82.960     177.703
  C      202.574     -81.132     176.136
  O      202.394     -82.417     176.724
  O      203.868     -81.692     178.626
  O      203.206     -84.165     178.514
  H      203.358     -81.746     179.456
  H      201.735     -80.904     175.512
  H      203.467     -81.131     175.547
  H      202.655     -80.395     176.907

 6  7  8  9  10  11  12  13  14  15  25  28  32  33  34  35 0
 6-311+G(2d,p)
 ****
 36  39  40 0
 6-311+G(2d,p)
 ****
 1  2  3  4  5  16  17  18  19  20  21  22  23  24 0
 3-21G
 ****
 26  27  29  30  31  37  38  41  42  43  44  45  46  47  48 0
 3-21G
 ****


