%nproc=1
%NoSave
%Mem=1900MB
#P OB98/GEN NMR

erre ene a

0 1
  C        7.205    -123.027     124.459
  O        7.929    -123.175     123.249
  P        7.161    -123.286     121.845
  C        6.744    -125.754     122.434
  O        7.179    -124.837     121.434
  C        6.558    -127.150     121.840
  O        6.240    -128.072     122.910
  C        5.432    -127.227     120.816
  O        5.804    -128.147     119.785
  C        4.265    -127.822     121.586
  O        3.355    -128.506     120.708
  C        4.993    -128.721     122.592
  N        0.785    -130.760     124.711
  C        1.253    -130.785     123.446
  N        2.365    -130.201     122.946
  C        3.050    -129.582     123.923
  C        2.697    -129.474     125.261
  C        1.502    -130.098     125.648
  N        1.031    -130.083     126.945
  N        3.637    -128.732     125.955
  C        4.544    -128.417     125.056
  N        4.240    -128.917     123.815
  O        7.648    -122.359     120.785
  O        5.626    -123.024     122.204
  H        2.572    -128.757     121.244
  H        5.197    -122.499     121.501
  H        0.654    -131.348     122.735
  H        5.425    -127.826     125.246
  H        5.222    -129.705     122.162
  H        3.710    -127.021     122.089
  H        5.186    -126.254     120.377
  H        7.509    -127.472     121.400
  H        5.790    -125.401     122.832
  H        0.231    -130.659     127.155
  H        1.648    -129.741     127.672
  H        7.476    -125.775     123.250
  P        5.311    -127.776     118.299
  C        3.417    -129.548     118.055
  O        4.725    -129.145     117.710
  O        6.378    -127.093     117.507
  O        4.028    -126.868     118.616
  H        3.645    -127.082     119.497
  H        3.217    -130.517     117.591
  H        2.689    -128.826     117.682
  H        3.323    -129.647     119.141
  H        7.889    -122.971     125.280
  H        6.557    -123.868     124.592
  H        6.622    -122.130     124.419

 3  4  5  6  7  8  9  10  11  12  22  25  29  30  31  32 0
 6-311+G(2d,p)
 ****
 33  36  37 0
 6-311+G(2d,p)
 ****
 1  2  13  14  15  16  17  18  19  20  21  23  24  26 0
 3-21G
 ****
 27  28  34  35  38  39  40  41  42  43  44  45  46  47  48 0
 3-21G
 ****


