%nproc=1
%NoSave
%Mem=1900MB
#P OB98/GEN NMR

erre ene a

0 1
  C     -413.030     406.017      11.164
  O     -412.749     406.495       9.868
  H     -412.195     406.270      11.823
  H     -413.140     404.928      11.148
  H     -413.941     406.476      11.560
  P     -413.911     406.373       8.767
  C     -413.618     408.922       8.359
  O     -413.742     407.629       7.778
  C     -412.965     409.889       7.367
  O     -411.545     409.582       7.283
  C     -413.551     409.809       5.956
  O     -413.601     411.132       5.407
  C     -412.532     408.985       5.189
  O     -412.552     409.247       3.786
  C     -411.225     409.378       5.893
  N     -410.193     408.352       5.723
  C     -409.485     408.364       4.522
  O     -409.744     409.214       3.658
  N     -408.544     407.400       4.292
  C     -408.385     406.439       5.152
  N     -407.457     405.490       4.859
  C     -409.157     406.345       6.410
  C     -410.035     407.331       6.631
  O     -415.240     406.730       9.588
  O     -414.005     405.053       8.081
  H     -412.384     410.202       3.647
  H     -416.012     406.248       9.239
  H     -409.011     405.517       7.084
  H     -410.653     407.340       7.517
  H     -410.839     410.328       5.497
  H     -412.735     407.919       5.337
  H     -414.547     409.363       5.923
  H     -413.047     410.907       7.768
  H     -406.958     405.581       3.980
  H     -412.990     408.852       9.255
  H     -407.281     404.678       5.430
  H     -414.609     409.286       8.651
  P     -415.021     411.879       5.461
  C     -413.893     414.220       5.465
  O     -414.839     413.347       4.854
  O     -415.245     412.134       7.027
  O     -416.137     411.082       4.867
  H     -415.944     411.546       7.367
  H     -413.887     415.157       4.949
  H     -412.919     413.780       5.416
  H     -414.162     414.378       6.488

 6  7  8  9  10  11  12  13  14  15  16  26  30  31  32  33  35 0
 6-311+G(2d,p)
 ****
 37  38 0
 6-311+G(2d,p)
 ****
 1  2  3  4  5  17  18  19  20  21  22  23  24  25 0
 3-21G
 ****
 27  28  29  34  36  39  40  41  42  43  44  45  46 0
 3-21G
 ****


