%nproc=1
%NoSave
%Mem=1900MB
#P OB98/GEN NMR

erre ene a

0 1
  C     -596.992     608.064     225.157
  O     -596.801     607.475     226.436
  H     -596.257     607.645     224.466
  H     -596.850     609.150     225.202
  H     -597.993     607.841     224.785
  P     -597.567     608.133     227.688
  C     -599.621     606.598     227.377
  O     -599.138     607.937     227.380
  C     -600.937     606.481     228.154
  O     -601.935     607.363     227.593
  C     -601.568     605.091     228.098
  O     -600.840     604.086     228.761
  C     -602.996     605.389     228.527
  O     -603.133     605.460     229.944
  C     -603.232     606.796     227.898
  N     -604.088     606.736     226.720
  C     -605.438     606.544     226.960
  O     -605.924     606.394     228.092
  N     -606.239     606.487     225.851
  C     -605.818     606.554     224.565
  O     -606.593     606.482     223.603
  C     -604.374     606.728     224.363
  C     -603.577     606.818     225.434
  O     -597.181     609.544     228.021
  O     -597.306     607.096     228.875
  H     -603.050     604.552     230.285
  H     -597.516     607.500     229.759
  H     -607.226     606.356     226.010
  H     -603.998     606.781     223.345
  H     -602.513     606.937     225.320
  H     -603.695     607.465     228.631
  H     -603.697     604.626     228.169
  H     -601.623     604.790     227.038
  H     -600.754     606.787     229.180
  H     -598.859     605.962     227.859
  H     -599.762     606.263     226.340
  P     -601.122     602.536     228.572
  C     -598.963     602.220     227.111
  O     -600.376     602.025     227.244
  O     -602.522     602.066     228.806
  O     -600.189     601.897     229.739
  H     -600.653     601.110     230.071
  H     -598.635     601.823     226.173
  H     -598.457     601.717     227.908
  H     -598.742     603.266     227.152

 6  7  8  9  10  11  12  13  14  15  16  26  31  32  33  34  35 0
 6-311+G(2d,p)
 ****
 36  37 0
 6-311+G(2d,p)
 ****
 1  2  3  4  5  17  18  19  20  21  22  23  24  25 0
 3-21G
 ****
 27  28  29  30  38  39  40  41  42  43  44  45 0
 3-21G
 ****


