%nproc=1
%NoSave
%Mem=1900MB
#P OB98/GEN NMR

erre ene a

0 1
  C      -65.303     -81.833      37.974
  O      -65.313     -81.691      39.375
  P      -65.864     -80.399      40.133
  C      -64.812     -78.175      41.023
  O      -64.720     -79.276      40.126
  C      -63.625     -77.216      40.846
  O      -63.467     -76.933      39.432
  C      -63.874     -75.870      41.548
  O      -62.740     -75.354      42.232
  C      -64.470     -75.013      40.436
  O      -64.378     -73.618      40.683
  C      -63.718     -75.529      39.211
  N      -66.071     -72.321      36.043
  C      -65.275     -72.037      37.137
  N      -65.253     -70.746      37.537
  N      -64.595     -72.945      37.792
  C      -64.804     -74.206      37.346
  C      -65.568     -74.608      36.273
  C      -66.287     -73.593      35.539
  O      -67.095     -73.812      34.635
  N      -65.603     -75.975      36.156
  C      -64.887     -76.403      37.179
  N      -64.410     -75.365      37.948
  O      -66.611     -80.635      41.405
  O      -66.914     -79.812      39.051
  H      -64.694     -73.157      39.883
  H      -67.649     -79.408      39.556
  H      -66.637     -71.588      35.631
  H      -64.710     -77.444      37.425
  H      -62.756     -75.030      39.095
  H      -65.538     -75.257      40.372
  H      -65.880     -70.057      37.145
  H      -64.618     -75.985      42.345
  H      -64.886     -70.558      38.467
  H      -62.711     -77.710      41.195
  H      -64.806     -78.599      42.034
  H      -65.759     -77.646      40.886
  P      -62.436     -73.848      42.675
  C      -61.497     -71.722      41.588
  O      -62.086     -72.989      41.368
  O      -61.036     -73.914      43.443
  O      -63.478     -73.236      43.554
  H      -61.055     -73.315      44.215
  H      -61.562     -71.137      40.665
  H      -60.443     -71.847      41.854
  H      -62.015     -71.184      42.387
  H      -64.886     -82.784      37.715
  H      -64.711     -81.054      37.541
  H      -66.304     -81.769      37.602

 3  4  5  6  7  8  9  10  11  12  23  26  30  31 0
 6-311+G(2d,p)
 ****
 33  35  36  37  38 0
 6-311+G(2d,p)
 ****
 1  2  13  14  15  16  17  18  19  20  21  22  24  25 0
 3-21G
 ****
 27  28  29  32  34  39  40  41  42  43  44  45  46  47  48  49 0
 3-21G
 ****


