%nproc=1
%NoSave
%Mem=1900MB
#P OB98/GEN NMR

erre ene a

0 1
  C     -206.629     -17.743     157.433
  O     -205.920     -18.748     158.157
  P     -205.473     -20.088     157.396
  C     -202.957     -19.595     157.600
  O     -204.006     -20.506     157.900
  C     -201.611     -20.040     158.189
  O     -201.546     -19.746     159.610
  C     -201.308     -21.537     158.020
  O     -199.897     -21.658     157.804
  C     -201.694     -22.103     159.370
  O     -201.127     -23.379     159.611
  C     -201.210     -20.975     160.290
  N     -201.807     -21.040     161.614
  C     -200.995     -21.489     162.659
  O     -199.863     -21.906     162.424
  N     -201.507     -21.478     163.939
  C     -202.759     -21.194     164.125
  N     -203.221     -21.175     165.404
  C     -203.690     -20.890     163.019
  C     -203.146     -20.807     161.808
  O     -205.646     -20.070     155.913
  O     -206.407     -21.208     158.070
  H     -201.382     -23.679     160.510
  H     -206.634     -21.875     157.393
  H     -204.742     -20.742     163.216
  H     -203.743     -20.585     160.935
  H     -200.119     -21.002     160.399
  H     -202.786     -22.200     159.430
  H     -201.837     -21.994     157.176
  H     -200.819     -19.451     157.699
  H     -202.576     -21.409     166.149
  H     -203.215     -18.609     157.993
  H     -204.171     -20.912     165.635
  H     -202.891     -19.474     156.510
  P     -199.351     -21.857     156.306
  C     -197.295     -20.282     156.515
  O     -197.771     -21.594     156.315
  O     -199.900     -20.529     155.579
  O     -199.836     -23.073     155.585
  H     -199.990     -20.707     154.627
  H     -196.233     -20.327     156.772
  H     -197.823     -19.785     157.334
  H     -197.407     -19.699     155.592
  H     -206.849     -16.923     158.084
  H     -207.542     -18.153     157.055
  H     -206.027     -17.400     156.618

 3  4  5  6  7  8  9  10  11  12  13  23  27  28  29  30  32 0
 6-311+G(2d,p)
 ****
 34  35 0
 6-311+G(2d,p)
 ****
 1  2  14  15  16  17  18  19  20  21  22  24  25  26 0
 3-21G
 ****
 31  33  36  37  38  39  40  41  42  43  44  45  46 0
 3-21G
 ****


