%nproc=1
%NoSave
%Mem=1900MB
#P OB98/GEN NMR

erre ene a

0 1
  C     -107.885     420.802     750.045
  O     -108.058     421.642     748.910
  P     -108.543     420.951     747.538
  C     -107.467     419.314     745.777
  O     -107.311     420.121     746.944
  C     -106.120     418.746     745.314
  O     -105.293     419.843     744.859
  C     -105.306     418.042     746.383
  O     -104.322     417.210     745.748
  C     -104.609     419.204     747.072
  O     -103.480     418.768     747.827
  C     -104.302     420.142     745.880
  N     -104.347     421.583     746.228
  C     -103.303     422.113     746.985
  O     -102.332     421.472     747.391
  N     -103.409     423.442     747.317
  C     -104.439     424.286     746.937
  O     -104.526     425.443     747.324
  C     -105.432     423.704     746.025
  C     -105.351     422.406     745.734
  O     -108.721     422.176     746.532
  O     -109.806     420.158     747.689
  H     -103.094     419.582     748.255
  H     -109.651     422.378     746.400
  H     -102.702     423.828     747.912
  H     -106.213     424.343     745.641
  H     -106.093     421.956     745.072
  H     -103.296     419.940     745.464
  H     -105.304     419.691     747.761
  H     -105.895     417.445     747.100
  H     -106.293     418.083     744.456
  H     -107.928     419.917     744.976
  H     -108.162     418.490     745.995
  P     -104.485     415.623     745.881
  C     -104.240     413.923     747.804
  O     -103.893     415.216     747.321
  O     -103.979     414.818     744.720
  O     -106.074     415.427     746.076
  H     -106.317     414.509     745.872
  H     -103.429     413.576     748.448
  H     -104.370     413.199     746.976
  H     -105.166     413.983     748.384
  H     -107.563     421.391     750.879
  H     -107.148     420.057     749.828
  H     -108.814     420.326     750.282

 3  4  5  6  7  8  9  10  11  12  13  23  28  29  30  31  32 0
 6-311+G(2d,p)
 ****
 33  34 0
 6-311+G(2d,p)
 ****
 1  2  14  15  16  17  18  19  20  21  22  24  25  26  27 0
 3-21G
 ****
 35  36  37  38  39  40  41  42  43  44  45 0
 3-21G
 ****


