%nproc=1
%NoSave
%Mem=1900MB
#P OB98/GEN NMR

erre ene a

0 1
  C     -476.608     118.460     253.539
  O     -477.906     117.881     253.439
  P     -479.015     118.672     252.597
  C     -479.558     116.640     251.065
  O     -480.052     117.605     251.968
  C     -480.587     115.525     250.815
  O     -480.751     114.707     252.007
  C     -481.975     116.043     250.423
  O     -482.595     115.083     249.570
  C     -482.710     116.069     251.753
  O     -484.127     116.103     251.569
  C     -482.155     114.787     252.384
  N     -481.897     111.872     256.504
  C     -481.729     111.543     255.174
  N     -481.417     110.256     254.899
  N     -481.862     112.396     254.194
  C     -482.136     113.657     254.622
  C     -482.333     114.110     255.906
  C     -482.204     113.145     256.983
  O     -482.356     113.370     258.177
  N     -482.629     115.458     255.935
  C     -482.613     115.808     254.665
  N     -482.293     114.778     253.828
  O     -478.202     119.181     251.317
  O     -479.639     119.813     253.331
  H     -484.384     115.252     251.132
  H     -478.059     120.139     251.367
  H     -481.791     111.166     257.221
  H     -482.842     116.803     254.287
  H     -482.664     113.877     252.007
  H     -482.414     116.947     252.339
  H     -481.245     109.558     255.609
  H     -481.973     117.022     249.924
  H     -481.239     110.005     253.937
  H     -480.204     114.864     250.020
  H     -478.636     116.195     251.455
  H     -479.280     117.138     250.125
  P     -483.495     115.646     248.361
  C     -482.961     113.670     246.742
  O     -483.931     114.371     247.499
  O     -482.423     116.380     247.420
  O     -484.605     116.561     248.767
  H     -482.865     117.075     246.883
  H     -482.701     112.753     247.265
  H     -482.049     114.271     246.591
  H     -483.373     113.426     245.771
  H     -475.978     117.825     254.126
  H     -476.681     119.420     254.005
  H     -476.190     118.570     252.560

 3  4  5  6  7  8  9  10  11  12  23  26  30  31 0
 6-311+G(2d,p)
 ****
 33  35  36  37  38 0
 6-311+G(2d,p)
 ****
 1  2  13  14  15  16  17  18  19  20  21  22  24  25 0
 3-21G
 ****
 27  28  29  32  34  39  40  41  42  43  44  45  46  47  48  49 0
 3-21G
 ****


