%nproc=1
%NoSave
%Mem=1900MB
#P OB98/GEN NMR

erre ene a

0 1
  C     -565.060     147.112     -61.106
  O     -564.714     148.038     -62.148
  P     -565.705     148.199     -63.405
  C     -566.170     150.735     -62.955
  O     -565.711     149.742     -63.858
  C     -565.648     152.112     -63.377
  O     -564.208     152.169     -63.261
  C     -565.946     152.475     -64.826
  O     -567.297     152.870     -65.006
  C     -564.947     153.608     -65.062
  O     -565.455     154.856     -64.566
  C     -563.737     153.140     -64.226
  N     -562.661     152.602     -65.047
  C     -561.646     153.481     -65.389
  O     -561.648     154.673     -65.090
  N     -560.622     152.949     -66.135
  C     -560.560     151.671     -66.619
  O     -559.627     151.260     -67.297
  C     -561.701     150.810     -66.293
  C     -562.690     151.308     -65.542
  O     -567.148     148.048     -62.724
  O     -565.527     147.197     -64.500
  H     -564.704     155.479     -64.544
  H     -567.780     147.696     -63.371
  H     -559.863     153.567     -66.375
  H     -561.703     149.800     -66.675
  H     -563.544     150.685     -65.287
  H     -563.344     153.982     -63.638
  H     -564.721     153.748     -66.126
  H     -565.700     151.634     -65.483
  H     -566.073     152.864     -62.692
  H     -565.806     150.509     -61.950
  H     -567.265     150.723     -62.935
  P     -568.046     152.324     -66.318
  C     -570.256     152.013     -64.953
  O     -569.602     152.601     -66.059
  O     -567.867     150.739     -66.125
  O     -567.472     152.862     -67.583
  H     -567.882     150.482     -65.186
  H     -569.587     151.917     -64.095
  H     -570.637     151.026     -65.233
  H     -571.101     152.649     -64.669
  H     -564.302     147.125     -60.351
  H     -565.138     146.127     -61.516
  H     -565.998     147.394     -60.675

 3  4  5  6  7  8  9  10  11  12  13  23  28  29  30  31  32 0
 6-311+G(2d,p)
 ****
 33  34 0
 6-311+G(2d,p)
 ****
 1  2  14  15  16  17  18  19  20  21  22  24  25  26 0
 3-21G
 ****
 27  35  36  37  38  39  40  41  42  43  44  45 0
 3-21G
 ****


