%nproc=1
%NoSave
%Mem=1900MB
#P OB98/GEN NMR

erre ene a

0 1
  C      506.624    -751.530     904.436
  O      505.964    -752.786     904.298
  P      506.864    -754.107     904.082
  C      507.255    -753.725     901.531
  O      507.825    -753.838     902.829
  C      508.353    -753.621     900.464
  O      509.146    -752.437     900.626
  C      509.335    -754.783     900.488
  O      508.830    -755.905     899.783
  C      510.511    -754.183     899.732
  O      510.264    -754.242     898.316
  C      510.502    -752.722     900.224
  N      515.211    -753.464     901.938
  C      514.620    -753.831     900.742
  N      515.416    -754.509     899.867
  N      513.391    -753.585     900.428
  C      512.722    -752.895     901.385
  C      513.182    -752.487     902.616
  C      514.544    -752.784     902.954
  O      515.128    -752.493     904.015
  N      512.197    -751.820     903.327
  C      511.145    -751.831     902.533
  N      511.410    -752.500     901.338
  O      505.799    -755.154     903.505
  O      507.503    -754.601     905.328
  H      511.066    -753.939     897.854
  H      506.079    -756.061     903.721
  H      516.164    -753.683     902.145
  H      510.190    -751.379     902.738
  H      510.765    -752.033     899.428
  H      511.433    -754.724     899.918
  H      516.399    -754.672     900.013
  H      509.633    -755.030     901.524
  H      515.024    -754.754     898.964
  H      507.855    -753.589     899.463
  H      506.596    -752.852     901.475
  H      506.595    -754.581     901.348
  P      508.335    -757.184     900.655
  C      510.261    -758.638     899.664
  O      509.624    -758.121     900.818
  O      507.406    -757.969     899.615
  O      507.605    -756.828     901.901
  H      506.698    -758.442     900.104
  H      511.189    -759.117     899.945
  H      510.466    -757.852     898.938
  H      509.604    -759.400     899.183
  H      505.896    -750.758     904.571
  H      507.197    -751.330     903.555
  H      507.274    -751.560     905.285

 3  4  5  6  7  8  9  10  11  12  23  26  30  31 0
 6-311+G(2d,p)
 ****
 33  35  36  37  38 0
 6-311+G(2d,p)
 ****
 1  2  13  14  15  16  17  18  19  20  21  22  24  25 0
 3-21G
 ****
 27  28  29  32  34  39  40  41  42  43  44  45  46  47  48  49 0
 3-21G
 ****


