%nproc=1
%NoSave
%Mem=1900MB
#P OB98/GEN NMR

erre ene a

0 1
  C      100.472     496.548    -146.687
  O       99.153     496.009    -146.727
  P       97.988     496.527    -147.689
  C       97.663     494.333    -149.085
  O       98.061     495.695    -149.053
  C       98.092     493.610    -150.372
  O       99.536     493.676    -150.509
  C       97.731     492.122    -150.298
  O       96.427     491.690    -150.629
  C       98.834     491.422    -151.079
  O       98.482     491.196    -152.446
  C      100.009     492.400    -150.989
  N      104.349     489.712    -150.645
  C      103.519     489.896    -151.733
  N      103.856     489.241    -152.867
  N      102.444     490.639    -151.710
  C      102.178     491.163    -150.494
  C      102.913     491.038    -149.335
  C      104.130     490.261    -149.386
  O      104.908     490.078    -148.459
  N      102.318     491.696    -148.290
  C      101.212     492.196    -148.804
  N      101.084     491.905    -150.145
  O       97.860     498.009    -147.806
  O       96.649     495.976    -146.976
  H       99.264     490.835    -152.900
  H       95.948     496.635    -147.159
  H      105.177     489.149    -150.728
  H      100.479     492.777    -148.259
  H      100.449     492.583    -151.974
  H       99.047     490.436    -150.647
  H      104.599     488.564    -152.917
  H       97.874     491.812    -149.255
  H      103.142     489.197    -153.594
  H       97.686     494.108    -151.255
  H       96.575     494.317    -148.982
  H       98.064     493.805    -148.216
  P       95.117     491.867    -149.729
  C       94.160     493.553    -151.406
  O       94.486     493.302    -150.051
  O       95.685     492.063    -148.247
  O       94.156     490.729    -149.785
  H       94.979     491.921    -147.588
  H       94.040     494.629    -151.551
  H       93.220     493.053    -151.655
  H       94.952     493.192    -152.074
  H      101.051     496.021    -145.958
  H      100.426     497.584    -146.425
  H      100.929     496.443    -147.649

 3  4  5  6  7  8  9  10  11  12  23  26  30  31 0
 6-311+G(2d,p)
 ****
 33  35  36  37  38 0
 6-311+G(2d,p)
 ****
 1  2  13  14  15  16  17  18  19  20  21  22  24  25 0
 3-21G
 ****
 27  28  29  32  34  39  40  41  42  43  44  45  46  47  48  49 0
 3-21G
 ****


