%nproc=1
%NoSave
%Mem=1900MB
#P OB98/GEN NMR

erre ene a

0 1
  C     -247.516     -73.968    -126.589
  O     -248.260     -72.802    -126.282
  P     -249.083     -72.758    -124.910
  C     -246.931     -72.218    -123.552
  O     -248.057     -73.068    -123.716
  C     -246.989     -71.509    -122.196
  O     -247.319     -72.482    -121.158
  C     -245.674     -70.833    -121.788
  O     -246.008     -69.650    -121.042
  C     -245.048     -71.859    -120.861
  O     -244.058     -71.313    -120.005
  C     -246.304     -72.367    -120.139
  N     -246.085     -73.636    -119.449
  C     -246.956     -73.960    -118.412
  O     -247.888     -73.244    -118.049
  N     -246.688     -75.127    -117.749
  C     -245.608     -75.938    -117.952
  O     -245.359     -76.905    -117.244
  C     -244.720     -75.547    -119.058
  C     -244.995     -74.435    -119.747
  O     -249.990     -74.076    -124.984
  O     -249.905     -71.525    -124.714
  H     -244.482     -70.615    -119.475
  H     -250.897     -73.850    -125.258
  H     -247.315     -75.382    -116.999
  H     -243.867     -76.179    -119.263
  H     -244.347     -74.113    -120.556
  H     -246.655     -71.618    -119.419
  H     -244.582     -72.651    -121.457
  H     -245.029     -70.577    -122.635
  H     -247.804     -70.774    -122.223
  H     -246.927     -71.471    -124.347
  H     -246.010     -72.806    -123.640
  P     -244.884     -68.513    -120.894
  C     -245.958     -66.984    -122.720
  O     -244.839     -67.725    -122.287
  O     -243.550     -69.405    -120.910
  O     -245.029     -67.681    -119.659
  H     -243.578     -70.103    -121.586
  H     -246.495     -66.531    -121.881
  H     -246.637     -67.641    -123.269
  H     -245.618     -66.189    -123.392
  H     -247.027     -73.841    -127.532
  H     -248.176     -74.809    -126.640
  H     -246.784     -74.135    -125.827

 3  4  5  6  7  8  9  10  11  12  13  23  28  29  30  31  32 0
 6-311+G(2d,p)
 ****
 33  34 0
 6-311+G(2d,p)
 ****
 1  2  14  15  16  17  18  19  20  21  22  24  25  26 0
 3-21G
 ****
 27  35  36  37  38  39  40  41  42  43  44  45 0
 3-21G
 ****


