%nproc=1
%NoSave
%Mem=1900MB
#P OB98/GEN NMR

erre ene a

0 1
  C     -951.453    -861.817    -193.924
  O     -952.506    -862.284    -194.745
  P     -953.148    -863.711    -194.372
  C     -955.656    -863.091    -194.072
  O     -954.419    -863.413    -193.434
  C     -956.817    -863.835    -193.422
  O     -956.617    -865.255    -193.580
  C     -956.989    -863.547    -191.924
  O     -958.389    -863.518    -191.639
  C     -956.384    -864.765    -191.262
  O     -956.904    -864.968    -189.949
  C     -956.717    -865.864    -192.275
  N     -955.835    -867.021    -192.152
  C     -956.178    -867.978    -191.191
  O     -957.133    -867.786    -190.443
  N     -955.400    -869.105    -191.071
  C     -954.310    -869.204    -191.767
  N     -953.565    -870.338    -191.612
  C     -953.848    -868.155    -192.701
  C     -954.659    -867.118    -192.866
  O     -952.078    -864.333    -193.360
  O     -953.402    -864.607    -195.551
  H     -956.604    -865.863    -189.646
  H     -952.049    -865.310    -193.439
  H     -952.910    -868.277    -193.241
  H     -954.422    -866.315    -193.544
  H     -957.759    -866.200    -192.150
  H     -955.295    -864.643    -191.180
  H     -956.535    -862.602    -191.623
  H     -957.737    -863.574    -193.961
  H     -953.897    -871.030    -190.952
  H     -955.598    -863.390    -195.124
  H     -952.704    -870.511    -192.115
  H     -955.804    -862.006    -194.026
  P     -958.913    -862.407    -190.613
  C     -960.357    -861.087    -192.286
  O     -959.176    -861.099    -191.512
  O     -957.560    -862.004    -189.852
  O     -959.991    -862.786    -189.646
  H     -957.757    -861.367    -189.150
  H     -960.474    -860.102    -192.730
  H     -961.223    -861.305    -191.670
  H     -960.281    -861.839    -193.085
  H     -951.119    -860.864    -194.279
  H     -950.641    -862.513    -193.955
  H     -951.802    -861.720    -192.917

 3  4  5  6  7  8  9  10  11  12  13  21  23  27  28  29  30  32 0
 6-311+G(2d,p)
 ****
 34  35 0
 6-311+G(2d,p)
 ****
 1  2  14  15  16  17  18  19  20  22  24  25  26 0
 3-21G
 ****
 31  33  36  37  38  39  40  41  42  43  44  45  46 0
 3-21G
 ****


