%nproc=1
%NoSave
%Mem=1900MB
#P OB98/GEN NMR

erre ene a

0 1
  C      112.209      77.995     -44.427
  O      111.752      79.328     -44.329
  P      112.726      80.573     -44.103
  C      114.564      81.148     -42.359
  O      113.343      80.466     -42.621
  C      115.128      80.853     -40.961
  O      115.714      79.536     -40.948
  C      116.258      81.833     -40.630
  O      115.960      83.114     -40.114
  C      117.253      81.025     -39.804
  O      117.101      81.237     -38.400
  C      116.917      79.574     -40.166
  N      121.227      76.923     -39.840
  C      120.294      77.193     -38.855
  N      120.658      76.874     -37.593
  N      119.133      77.743     -39.091
  C      118.953      78.093     -40.388
  C      119.797      77.867     -41.451
  C      121.061      77.220     -41.183
  O      121.950      77.042     -42.012
  N      119.320      78.425     -42.609
  C      118.207      79.025     -42.243
  N      117.964      78.886     -40.894
  O      112.238      81.903     -44.581
  O      113.986      80.163     -45.026
  H      117.610      80.546     -37.936
  H      114.357      80.986     -45.398
  H      122.142      76.570     -39.585
  H      117.562      79.599     -42.897
  H      116.720      78.987     -39.259
  H      118.282      81.310     -40.050
  H      121.596      76.586     -37.359
  H      116.780      82.042     -41.572
  H      120.074      77.210     -36.835
  H      114.332      80.830     -40.214
  H      114.375      82.219     -42.481
  H      115.309      80.868     -43.111
  P      116.985      84.332     -39.945
  C      119.511      84.216     -39.567
  O      118.238      83.820     -39.089
  O      116.247      85.331     -38.933
  O      117.335      85.040     -41.211
  H      116.610      86.231     -39.036
  H      120.276      83.582     -39.110
  H      119.700      85.256     -39.287
  H      119.571      84.116     -40.656
  H      111.375      77.342     -44.577
  H      112.716      77.725     -43.525
  H      112.882      77.909     -45.254

 3  4  5  6  7  8  9  10  11  12  23  26  30  31 0
 6-311+G(2d,p)
 ****
 33  35  36  37  38 0
 6-311+G(2d,p)
 ****
 1  2  13  14  15  16  17  18  19  20  21  22  24  25 0
 3-21G
 ****
 27  28  29  32  34  39  40  41  42  43  44  45  46  47  48  49 0
 3-21G
 ****


