%nproc=1
%NoSave
%Mem=1900MB
#P OB98/GEN NMR

erre ene a

0 1
  C      118.728      35.266    -122.862
  O      118.879      33.907    -122.488
  P      119.826      33.585    -121.231
  C      117.877      32.631    -119.802
  O      118.884      33.628    -119.932
  C      118.311      31.525    -118.839
  O      118.757      32.129    -117.601
  C      117.207      30.519    -118.505
  O      117.810      29.229    -118.392
  C      116.729      30.961    -117.135
  O      116.127      29.888    -116.415
  C      118.032      31.502    -116.524
  N      117.780      32.437    -115.432
  C      117.524      31.885    -114.173
  O      117.437      30.664    -114.042
  N      117.318      32.728    -113.110
  C      117.266      34.007    -113.306
  N      117.063      34.802    -112.221
  C      117.410      34.624    -114.640
  C      117.684      33.792    -115.642
  O      120.704      34.914    -121.095
  O      120.669      32.362    -121.384
  H      115.419      29.502    -116.979
  H      121.595      34.710    -120.756
  H      117.322      35.695    -114.755
  H      117.828      34.156    -116.650
  H      118.649      30.678    -116.142
  H      115.992      31.765    -117.239
  H      116.415      30.493    -119.259
  H      119.174      31.010    -119.278
  H      116.954      34.354    -111.320
  H      117.695      32.180    -120.781
  H      117.008      35.809    -112.280
  H      116.948      33.097    -119.463
  P      116.870      27.948    -118.596
  C      118.034      27.572    -120.852
  O      116.800      27.733    -120.183
  O      115.420      28.566    -118.293
  O      117.125      26.740    -117.759
  H      114.750      27.860    -118.321
  H      117.836      27.301    -121.893
  H      118.622      26.778    -120.385
  H      118.592      28.513    -120.836
  H      118.076      35.333    -123.707
  H      119.684      35.674    -123.116
  H      118.311      35.817    -122.045

 3  4  5  6  7  8  9  10  11  12  13  21  23  27  28  29  30  32 0
 6-311+G(2d,p)
 ****
 34  35 0
 6-311+G(2d,p)
 ****
 1  2  14  15  16  17  18  19  20  22  24  25  26 0
 3-21G
 ****
 31  33  36  37  38  39  40  41  42  43  44  45  46 0
 3-21G
 ****


