%nproc=1
%NoSave
%Mem=1900MB
#P OB98/GEN NMR

erre ene a

0 1
  C      -23.414    -124.504     389.692
  O      -24.323    -123.559     389.170
  H      -22.504    -123.996     390.027
  H      -23.874    -125.004     390.550
  H      -23.161    -125.257     388.936
  P      -23.912    -122.832     387.799
  C      -24.668    -124.504     385.952
  O      -24.976    -123.339     386.699
  C      -25.869    -124.925     385.101
  O      -26.825    -125.615     385.952
  C      -26.597    -123.743     384.443
  O      -27.016    -124.132     383.132
  C      -27.810    -123.538     385.331
  O      -28.886    -122.911     384.641
  C      -28.106    -124.969     385.785
  N      -32.697    -124.169     387.881
  C      -32.274    -124.161     386.601
  N      -31.034    -124.391     386.121
  C      -30.189    -124.703     387.129
  C      -30.473    -124.750     388.486
  C      -31.796    -124.460     388.860
  N      -32.221    -124.431     390.168
  N      -29.334    -125.071     389.206
  C      -28.386    -125.214     388.297
  N      -28.856    -124.992     387.029
  O      -22.566    -123.609     387.395
  O      -23.709    -121.359     387.877
  H      -29.084    -123.438     383.838
  H      -21.820    -123.251     387.916
  H      -33.033    -123.927     385.857
  H      -27.354    -125.462     388.507
  H      -28.688    -125.535     385.043
  H      -27.541    -122.908     386.192
  H      -25.980    -122.853     384.375
  H      -25.531    -125.656     384.351
  H      -24.405    -125.316     386.642
  H      -33.179    -124.153     390.347
  H      -31.559    -124.583     390.910
  H      -23.809    -124.298     385.300
  P      -26.011    -123.804     381.922
  C      -24.902    -126.147     381.773
  O      -25.700    -125.165     381.125
  O      -24.630    -123.479     382.673
  O      -26.453    -122.659     381.068
  H      -24.265    -122.641     382.334
  H      -24.780    -126.991     381.127
  H      -25.382    -126.457     382.678
  H      -23.943    -125.732     382.002

 6  7  8  9  10  11  12  13  14  15  25  28  32  33  34  35 0
 6-311+G(2d,p)
 ****
 36  39  40 0
 6-311+G(2d,p)
 ****
 1  2  3  4  5  16  17  18  19  20  21  22  23  24 0
 3-21G
 ****
 26  27  29  30  31  37  38  41  42  43  44  45  46  47 0
 3-21G
 ****
 48 0
 3-21G
 ****


