%nproc=1
%NoSave
%Mem=1900MB
#P OB98/GEN NMR

erre ene a

0 1
  C      819.836     307.080    -572.663
  O      820.461     308.156    -573.356
  P      820.072     308.379    -574.902
  C      820.822     310.873    -574.773
  O      820.955     309.613    -575.417
  C      822.199     311.526    -574.582
  O      822.918     310.801    -573.550
  C      823.085     311.531    -575.835
  O      823.877     312.723    -575.772
  C      823.969     310.323    -575.633
  O      825.165     310.377    -576.401
  C      824.162     310.349    -574.122
  N      827.283     306.392    -574.586
  C      827.148     307.507    -575.396
  N      828.008     307.602    -576.426
  N      826.253     308.439    -575.195
  C      825.484     308.219    -574.106
  C      825.495     307.133    -573.257
  C      826.514     306.130    -573.461
  O      826.722     305.167    -572.723
  N      824.492     307.228    -572.314
  C      823.930     308.393    -572.555
  N      824.526     309.044    -573.596
  O      818.594     308.974    -574.812
  O      820.161     307.159    -575.771
  H      825.711     311.121    -576.064
  H      817.926     308.272    -574.896
  H      828.007     305.718    -574.771
  H      823.094     308.807    -572.004
  H      824.958     311.062    -573.826
  H      823.422     309.416    -575.936
  H      828.737     306.938    -576.623
  H      822.515     311.499    -576.770
  H      827.945     308.418    -577.023
  H      822.038     312.548    -574.213
  H      820.376     310.720    -573.780
  H      820.163     311.519    -575.358
  P      824.553     313.244    -577.137
  C      823.481     315.606    -577.149
  O      824.674     314.839    -577.035
  O      823.393     313.026    -578.215
  O      825.796     312.514    -577.535
  H      823.782     312.818    -579.078
  H      823.644     316.585    -576.679
  H      822.639     315.123    -576.667
  H      823.249     315.755    -578.216
  H      820.188     307.054    -571.653
  H      820.075     306.157    -573.148
  H      818.775     307.221    -572.667

 3  4  5  6  7  8  9  10  11  12  23  26  30  31 0
 6-311+G(2d,p)
 ****
 33  35  36  37  38 0
 6-311+G(2d,p)
 ****
 1  2  13  14  15  16  17  18  19  20  21  22  24  25 0
 3-21G
 ****
 27  28  29  32  34  39  40  41  42  43  44  45  46  47  48  49 0
 3-21G
 ****


