%nproc=1
%NoSave
%Mem=1900MB
#P OB98/GEN NMR

erre ene a

0 1
  C       36.764     -34.495    -269.911
  O       37.261     -34.692    -271.245
  P       38.821     -35.020    -271.459
  C       39.252     -33.440    -273.498
  O       39.193     -34.768    -272.998
  C       39.040     -33.440    -275.015
  O       40.043     -34.252    -275.667
  C       37.706     -34.017    -275.463
  O       36.638     -33.107    -275.264
  C       37.985     -34.311    -276.935
  O       37.820     -33.129    -277.736
  C       39.465     -34.742    -276.897
  N       39.633     -36.188    -277.028
  C       39.010     -36.786    -278.121
  O       38.301     -36.168    -278.911
  N       39.203     -38.135    -278.248
  C       39.886     -38.935    -277.377
  O       40.007     -40.144    -277.540
  C       40.453     -38.259    -276.203
  C       40.297     -36.939    -276.080
  O       38.838     -36.624    -271.373
  O       39.752     -34.428    -270.453
  H       38.459     -32.472    -277.395
  H       39.708     -36.923    -271.052
  H       38.785     -38.583    -279.049
  H       40.983     -38.863    -275.474
  H       40.712     -36.425    -275.220
  H       40.020     -34.252    -277.707
  H       37.311     -35.071    -277.344
  H       37.515     -34.962    -274.942
  H       39.153     -32.407    -275.376
  H       40.234     -33.013    -273.274
  H       38.486     -32.838    -273.002
  P       35.458     -33.587    -274.285
  C       33.997     -32.126    -275.885
  O       34.239     -32.590    -274.576
  O       36.038     -33.131    -272.863
  O       35.158     -35.047    -274.398
  H       36.567     -32.316    -272.927
  H       34.260     -32.879    -276.635
  H       34.582     -31.219    -276.064
  H       32.934     -31.889    -275.986
  H       35.715     -34.288    -269.948
  H       37.275     -33.671    -269.458
  H       36.932     -35.380    -269.333

 3  4  5  6  7  8  9  10  11  12  13  23  28  29  30  31  32 0
 6-311+G(2d,p)
 ****
 33  34 0
 6-311+G(2d,p)
 ****
 1  2  14  15  16  17  18  19  20  21  22  24  25  26 0
 3-21G
 ****
 27  35  36  37  38  39  40  41  42  43  44  45 0
 3-21G
 ****


