%nproc=1
%NoSave
%Mem=1900MB
#P OB98/GEN NMR

erre ene a

0 1
  C     -382.044     -46.147     260.618
  O     -383.233     -46.337     261.359
  H     -381.215     -46.609     261.158
  H     -381.841     -45.077     260.503
  H     -382.132     -46.615     259.634
  P     -384.577     -45.739     260.717
  C     -384.236     -43.159     260.860
  O     -384.168     -44.331     260.064
  C     -384.394     -41.918     259.972
  O     -383.263     -41.856     259.050
  C     -385.667     -41.931     259.108
  O     -386.059     -40.565     258.876
  C     -385.156     -42.541     257.812
  O     -386.079     -42.352     256.763
  C     -383.809     -41.828     257.710
  N     -382.940     -42.979     252.805
  C     -383.933     -42.285     253.404
  N     -384.090     -42.009     254.714
  C     -383.074     -42.513     255.433
  C     -381.986     -43.234     254.962
  C     -381.942     -43.472     253.578
  N     -380.936     -44.183     252.967
  N     -381.147     -43.589     256.004
  C     -381.718     -43.087     257.082
  N     -382.886     -42.440     256.787
  O     -385.442     -45.328     261.998
  O     -385.321     -46.661     259.810
  H     -386.923     -42.808     256.956
  H     -386.066     -46.045     262.221
  H     -384.706     -41.902     252.740
  H     -381.336     -43.173     258.093
  H     -383.927     -40.777     257.420
  H     -385.019     -43.620     257.916
  H     -386.497     -42.475     259.565
  H     -384.346     -41.019     260.596
  H     -383.311     -43.081     261.444
  H     -385.088     -43.226     261.543
  H     -380.988     -44.321     251.970
  H     -380.195     -44.570     253.532
  P     -387.409     -40.016     259.552
  C     -388.837     -39.898     257.362
  O     -388.656     -40.467     258.649
  O     -387.325     -38.443     259.231
  O     -387.543     -40.245     261.021
  H     -387.803     -37.944     259.917
  H     -389.712     -40.314     256.908
  H     -387.984     -40.113     256.754
  H     -388.952     -38.838     257.454

 6  7  8  9  10  11  12  13  14  15  25  28  32  33  34  35 0
 6-311+G(2d,p)
 ****
 36  37  40 0
 6-311+G(2d,p)
 ****
 1  2  3  4  5  16  17  18  19  20  21  22  23  24 0
 3-21G
 ****
 26  27  29  30  31  38  39 41  42  43  44  45  46  47  48 0
 3-21G
 ****


