%nproc=1
%NoSave
%Mem=1900MB
#P OB98/GEN NMR

erre ene a

0 1
  C      214.553      38.445     -68.879
  O      213.590      38.160     -67.886
  H      214.846      39.496     -68.796
  H      214.130      38.277     -69.872
  H      215.438      37.819     -68.739
  P      213.020      36.662     -67.838
  C      210.585      37.135     -68.597
  O      211.852      36.591     -68.942
  C      209.593      36.945     -69.745
  O      208.288      37.435     -69.326
  C      209.977      37.693     -71.029
  O      209.628      36.883     -72.157
  C      209.075      38.913     -70.999
  O      208.872      39.465     -72.296
  C      207.822      38.322     -70.360
  N      203.748      41.099     -71.368
  C      204.359      40.102     -72.105
  N      203.804      39.799     -73.299
  N      205.426      39.462     -71.707
  C      205.859      39.849     -70.484
  C      205.352      40.826     -69.662
  C      204.184      41.545     -70.123
  O      203.612      42.452     -69.527
  N      206.099      40.943     -68.516
  C      207.053      40.039     -68.645
  N      206.948      39.348     -69.822
  O      212.220      36.610     -66.452
  O      214.043      35.581     -67.939
  H      208.480      38.767     -72.862
  H      212.232      35.708     -66.077
  H      202.935      41.569     -71.725
  H      207.839      39.848     -67.926
  H      207.226      37.737     -71.073
  H      209.511      39.690     -70.359
  H      202.963      40.228     -73.655
  H      211.036      37.957     -71.081
  H      204.227      39.062     -73.850
  H      209.478      35.870     -69.934
  H      210.700      38.205     -68.389
  H      210.212      36.634     -67.698
  P      210.749      36.647     -73.278
  C      209.694      37.897     -75.292
  O      210.716      37.877     -74.307
  O      210.151      35.431     -74.133
  O      212.094      36.308     -72.725
  H      210.660      34.620     -73.953
  H      209.801      38.771     -75.900
  H      208.737      37.911     -74.813
  H      209.773      37.024     -75.906

 6  7  8  9  10  11  12  13  14  15  26  29  33  34 0
 6-311+G(2d,p)
 ****
 36  38  39  40  41 0
 6-311+G(2d,p)
 ****
 1  2  3  4  5  16  17  18  19  20  21  22  23  24  25 0
 3-21G
 ****
 27  28  30  31  32  35  37  42  43  44  45  46  47 0
 3-21G
 ****
 48  49 0
 3-21G
 ****


