%nproc=1
%NoSave
%Mem=1900MB
#P OB98/GEN NMR

erre ene a

0 1
  C       56.445     462.733    -279.784
  O       56.616     464.155    -279.786
  P       57.102     464.895    -281.127
  C       54.877     464.565    -282.406
  O       56.278     464.315    -282.373
  C       54.534     465.485    -283.587
  O       54.887     464.866    -284.855
  C       53.043     465.771    -283.697
  O       52.485     466.587    -282.694
  C       52.913     466.241    -285.140
  O       53.243     467.627    -285.270
  C       53.966     465.364    -285.847
  N       53.357     464.262    -286.607
  C       53.080     464.513    -287.946
  O       53.279     465.604    -288.478
  N       52.526     463.478    -288.647
  C       52.200     462.248    -288.144
  O       51.686     461.366    -288.815
  C       52.492     462.048    -286.719
  C       53.046     463.046    -286.026
  O       58.581     464.981    -281.315
  O       56.479     466.366    -280.957
  H       54.170     467.733    -284.997
  H       57.147     467.008    -281.267
  H       52.326     463.644    -289.621
  H       52.237     461.091    -286.284
  H       53.268     462.917    -284.963
  H       54.555     465.962    -286.555
  H       51.886     466.120    -285.506
  H       52.506     464.812    -283.628
  H       55.115     466.403    -283.495
  H       54.559     465.022    -281.468
  H       54.347     463.609    -282.481
  P       51.076     466.274    -281.983
  C       51.942     465.108    -279.832
  O       51.262     464.976    -281.062
  O       49.844     466.340    -282.831
  O       51.009     467.440    -280.881
  H       50.070     467.692    -280.759
  H       51.993     464.130    -279.348
  H       51.422     465.803    -279.172
  H       52.968     465.463    -280.001
  H       56.120     462.414    -278.816
  H       57.376     462.261    -280.021
  H       55.711     462.461    -280.514

 3  4  5  6  7  8  9  10  11  12  13  23  28  29  30  31  32 0
 6-311+G(2d,p)
 ****
 33  34 0
 6-311+G(2d,p)
 ****
 1  2  14  15  16  17  18  19  20  21  22  24  25  26  27 0
 3-21G
 ****
 35  36  37  38  39  40  41  42  43  44  45 0
 3-21G
 ****


