%nproc=1
%NoSave
%Mem=1900MB
#P OB98/GEN NMR

erre ene a

0 1
  C      110.976    -116.119     400.641
  O      109.921    -115.368     401.250
  P      110.188    -114.719     402.689
  C      111.585    -112.724     401.783
  O      110.427    -113.149     402.491
  C      111.366    -111.321     401.196
  O      110.340    -111.320     400.180
  C      110.936    -110.293     402.232
  O      112.042    -109.764     402.945
  C      110.333    -109.218     401.337
  O      111.383    -108.410     400.769
  C      109.649    -110.051     400.248
  N      104.963    -108.309     399.457
  C      106.181    -107.820     399.022
  N      106.140    -106.710     398.248
  N      107.330    -108.372     399.306
  C      107.210    -109.485     400.068
  C      106.066    -110.069     400.561
  C      104.801    -109.437     400.250
  O      103.693    -109.816     400.623
  N      106.350    -111.190     401.299
  C      107.668    -111.297     401.238
  N      108.235    -110.281     400.513
  O      111.647    -115.262     403.058
  O      109.180    -115.094     403.727
  H      110.949    -107.772     400.167
  H      111.747    -115.318     404.029
  H      104.111    -107.841     399.209
  H      108.241    -112.095     401.689
  H      109.720    -109.585     399.258
  H      109.675    -108.540     401.886
  H      105.293    -106.261     397.953
  H      110.164    -110.697     402.902
  H      107.024    -106.356     397.895
  H      112.313    -110.997     400.739
  H      111.823    -113.425     400.979
  H      112.446    -112.748     402.458
  P      111.912    -109.627     404.540
  C      112.477    -112.091     405.136
  O      112.894    -110.738     405.157
  O      110.445    -110.195     404.823
  O      112.082    -108.243     405.062
  H      110.058    -109.747     405.596
  H      113.329    -112.713     405.444
  H      112.181    -112.385     404.124
  H      111.656    -112.248     405.833
  H      110.650    -116.486     399.691
  H      111.237    -116.943     401.271
  H      111.830    -115.489     400.506

 3  4  5  6  7  8  9  10  11  12  23  26  30  31 0
 6-311+G(2d,p)
 ****
 33  35  36  37  38 0
 6-311+G(2d,p)
 ****
 1  2  13  14  15  16  17  18  19  20  21  22  24  25 0
 3-21G
 ****
 27  28  29  32  34  39  40  41  42  43  44  45  46  47  48  49 0
 3-21G
 ****


