%nproc=1
%NoSave
%Mem=1900MB
#P OB98/GEN NMR

erre ene a

0 1
  C     -614.595    1280.503    -252.763
  O     -614.114    1281.787    -252.377
  H     -613.755    1279.813    -252.774
  H     -615.019    1280.551    -253.766
  H     -615.334    1280.158    -252.048
  P     -615.198    1282.974    -252.338
  C     -614.852    1283.873    -254.748
  O     -615.673    1283.117    -253.868
  C     -615.691    1284.516    -255.853
  O     -615.983    1283.543    -256.872
  C     -617.019    1285.059    -255.408
  O     -616.868    1286.371    -254.850
  C     -617.789    1285.103    -256.711
  O     -617.433    1286.285    -257.456
  C     -617.287    1283.847    -257.438
  N     -620.710    1280.855    -259.839
  C     -620.189    1282.065    -260.159
  N     -619.330    1282.817    -259.464
  C     -618.976    1282.217    -258.285
  C     -619.441    1280.988    -257.820
  C     -620.353    1280.301    -258.647
  N     -620.875    1279.068    -258.310
  N     -618.895    1280.704    -256.588
  C     -618.080    1281.702    -256.352
  N     -618.117    1282.655    -257.323
  O     -614.759    1284.221    -251.664
  O     -616.441    1282.233    -251.658
  H     -616.460    1286.315    -257.498
  H     -616.531    1281.327    -252.007
  H     -620.496    1282.461    -261.117
  H     -617.418    1281.775    -255.486
  H     -617.139    1284.026    -258.512
  H     -618.884    1285.150    -256.561
  H     -617.533    1284.394    -254.693
  H     -615.094    1285.301    -256.322
  H     -614.078    1283.237    -255.187
  H     -621.638    1278.738    -258.864
  H     -620.706    1278.725    -257.384
  H     -614.371    1284.648    -254.158
  P     -617.690    1286.834    -253.553
  C     -618.966    1288.684    -254.790
  O     -619.065    1287.423    -254.122
  O     -616.924    1287.721    -252.623
  O     -618.144    1285.458    -252.878
  H     -618.417    1285.621    -251.924
  H     -619.935    1288.985    -255.129
  H     -618.307    1288.593    -255.628
  H     -618.581    1289.417    -254.112

 6  7  8  9  10  11  12  13  14  15  25  28  32  33  34  35 0
 6-311+G(2d,p)
 ****
 36  39  40 0
 6-311+G(2d,p)
 ****
 1  2  3  4  5  16  17  18  19  20  21  22  23  24 0
 3-21G
 ****
 26  27  29  30  31  37  38  41  42  43  44  45  46  47 0
 3-21G
 ****
 48 0
 3-21G
 ****


