%nproc=1
%NoSave
%Mem=1900MB
#P OB98/GEN NMR

erre ene a

0 1
  C      154.112     -19.786     170.770
  O      153.123     -18.772     170.785
  P      152.054     -18.653     169.602
  C      150.146     -19.602     171.029
  O      150.927     -19.774     169.853
  C      148.653     -19.562     170.703
  O      148.281     -20.788     170.009
  C      147.732     -19.434     171.928
  O      146.604     -18.655     171.518
  C      147.295     -20.871     172.169
  O      146.098     -20.968     172.932
  C      147.172     -21.363     170.730
  N      144.510     -25.701     171.279
  C      144.182     -24.410     171.513
  N      144.958     -23.311     171.367
  C      146.182     -23.651     170.928
  C      146.667     -24.925     170.673
  C      145.761     -25.987     170.853
  N      146.063     -27.306     170.582
  N      147.999     -24.869     170.295
  C      148.304     -23.586     170.319
  N      147.223     -22.811     170.630
  O      152.630     -18.644     168.223
  O      151.280     -17.286     169.915
  H      146.209     -20.440     173.745
  H      151.564     -16.592     169.287
  H      143.164     -24.230     171.855
  H      149.285     -23.167     170.123
  H      146.245     -21.024     170.256
  H      148.086     -21.409     172.707
  H      148.214     -18.987     172.803
  H      148.478     -18.733     170.006
  H      150.441     -18.658     171.493
  H      145.303     -27.967     170.616
  H      146.889     -27.518     170.023
  H      150.355     -20.415     171.733
  P      145.896     -17.660     172.563
  C      146.306     -15.644     171.039
  O      146.532     -16.215     172.317
  O      145.885     -18.131     173.980
  O      144.406     -17.506     171.978
  H      143.818     -17.160     172.675
  H      147.019     -16.069     170.322
  H      146.463     -14.562     171.097
  H      145.289     -15.839     170.694
  H      154.726     -19.698     171.642
  H      154.718     -19.680     169.894
  H      153.639     -20.746     170.762

 3  4  5  6  7  8  9  10  11  12  22  25  29  30  31  32 0
 6-311+G(2d,p)
 ****
 33  36  37 0
 6-311+G(2d,p)
 ****
 1  2  13  14  15  16  17  18  19  20  21  23  24  26 0
 3-21G
 ****
 27  28  34  35  38  39  40  41  42  43  44  45  46  47  48 0
 3-21G
 ****


