%nproc=1
%NoSave
%Mem=1900MB
#P OB98/GEN NMR

erre ene a

0 1
  C      -28.855       5.099     -95.327
  O      -27.732       4.285     -94.972
  P      -27.885       2.697     -95.135
  C      -25.371       2.207     -95.553
  O      -26.501       2.001     -94.719
  C      -24.716       3.570     -95.282
  O      -24.428       3.732     -93.866
  C      -23.393       3.770     -96.027
  O      -23.239       5.168     -96.302
  C      -22.364       3.363     -94.990
  O      -21.067       3.869     -95.305
  C      -23.006       3.935     -93.729
  N      -19.666       4.327     -89.970
  C      -19.873       5.142     -91.066
  N      -19.097       6.242     -91.154
  N      -20.764       4.899     -91.993
  C      -21.491       3.781     -91.751
  C      -21.376       2.890     -90.709
  C      -20.371       3.158     -89.705
  O      -20.134       2.465     -88.721
  N      -22.278       1.863     -90.827
  C      -22.930       2.130     -91.944
  N      -22.514       3.300     -92.520
  O      -27.935       2.504     -96.724
  O      -29.107       2.139     -94.484
  H      -20.447       3.525     -94.627
  H      -28.838       2.265     -96.999
  H      -18.960       4.556     -89.291
  H      -23.705       1.515     -92.376
  H      -22.823       5.012     -93.619
  H      -22.302       2.269     -94.938
  H      -18.430       6.515     -90.448
  H      -23.300       3.206     -96.961
  H      -19.257       6.878     -91.926
  H      -25.423       4.359     -95.564
  H      -25.664       2.149     -96.605
  H      -24.662       1.386     -95.399
  P      -23.362       5.625     -97.831
  C      -23.944       8.085     -97.240
  O      -23.035       7.193     -97.857
  O      -24.936       5.566     -98.118
  O      -22.585       4.792     -98.797
  H      -25.103       5.437     -99.069
  H      -23.532       8.406     -96.280
  H      -24.925       7.628     -97.081
  H      -24.066       8.960     -97.885
  H      -28.613       6.129     -95.169
  H      -29.695       4.833     -94.720
  H      -29.097       4.943     -96.358

 3  4  5  6  7  8  9  10  11  12  23  26  30  31 0
 6-311+G(2d,p)
 ****
 33  35  36  37  38 0
 6-311+G(2d,p)
 ****
 1  2  13  14  15  16  17  18  19  20  21  22  24  25 0
 3-21G
 ****
 27  28  29  32  34  39  40  41  42  43  44  45  46  47  48  49 0
 3-21G
 ****


