%nproc=1
%NoSave
%Mem=1900MB
#P OB98/GEN NMR

erre ene a

0 1
  C      813.849      52.957    -566.614
  O      814.817      53.981    -566.480
  H      814.352      51.988    -566.567
  H      813.332      53.035    -567.576
  H      813.124      53.009    -565.799
  P      814.335      55.504    -566.634
  C      815.024      55.573    -569.129
  O      813.972      55.717    -568.183
  C      814.477      55.600    -570.560
  O      813.720      56.837    -570.740
  C      815.564      55.575    -571.646
  O      815.000      54.917    -572.798
  C      815.774      57.059    -571.910
  O      816.495      57.265    -573.097
  C      814.326      57.542    -571.851
  N      814.228      58.986    -571.697
  C      814.069      59.720    -572.877
  O      814.024      59.149    -573.975
  N      813.985      61.093    -572.798
  C      814.130      61.674    -571.644
  N      814.059      63.026    -571.639
  C      814.364      60.933    -570.384
  C      814.400      59.606    -570.489
  O      815.252      56.532    -566.055
  O      812.901      55.529    -565.918
  H      817.416      56.953    -573.000
  H      812.978      55.966    -565.052
  H      814.502      61.472    -569.456
  H      814.563      58.982    -569.621
  H      813.772      57.250    -572.757
  H      816.353      57.505    -571.106
  H      816.468      55.046    -571.316
  H      813.769      54.774    -570.681
  H      813.915      63.498    -572.523
  H      815.508      54.617    -568.941
  H      814.184      63.589    -570.809
  H      815.762      56.372    -568.997
  P      815.557      53.526    -573.357
  C      816.885      54.495    -575.348
  O      816.952      53.769    -574.121
  O      814.552      52.758    -574.151
  O      815.999      52.696    -572.060
  H      815.867      51.746    -572.229
  H      817.868      54.592    -575.759
  H      816.477      55.467    -575.165
  H      816.259      53.970    -576.039

 6  7  8  9  10  11  12  13  14  15  16  26  30  31  32  33  35 0
 6-311+G(2d,p)
 ****
 37  38 0
 6-311+G(2d,p)
 ****
 1  2  3  4  5  17  18  19  20  21  22  23  24  25 0
 3-21G
 ****
 27  28  29  34  36  39  40  41  42  43  44  45  46 0
 3-21G
 ****


