%nproc=1
%NoSave
%Mem=1900MB
#P OB98/GEN NMR

erre ene a

0 1
  C      -77.444      75.624    -514.894
  O      -78.598      76.188    -515.474
  H      -77.000      74.923    -515.606
  H      -77.719      75.076    -513.988
  H      -76.702      76.389    -514.648
  P      -79.179      77.549    -514.867
  C      -79.447      78.487    -512.477
  O      -79.440      77.326    -513.296
  C      -79.554      78.130    -510.993
  O      -78.477      77.240    -510.628
  C      -79.440      79.356    -510.086
  O      -80.668      80.029    -509.846
  C      -78.893      78.744    -508.797
  O      -79.954      78.285    -507.943
  C      -78.056      77.558    -509.295
  N      -73.759      77.760    -506.531
  C      -75.062      77.611    -506.096
  N      -75.236      77.542    -504.759
  N      -76.086      77.552    -506.905
  C      -75.766      77.732    -508.206
  C      -74.516      77.913    -508.752
  C      -73.378      77.902    -507.859
  O      -72.204      78.014    -508.196
  N      -74.582      78.105    -510.113
  C      -75.877      78.129    -510.370
  N      -76.629      77.827    -509.260
  O      -80.667      77.617    -515.459
  O      -78.414      78.790    -515.220
  H      -80.452      77.596    -508.420
  H      -80.928      78.548    -515.583
  H      -73.007      77.773    -505.866
  H      -76.317      78.312    -511.343
  H      -78.227      76.665    -508.681
  H      -78.323      79.480    -508.225
  H      -74.493      77.668    -504.090
  H      -78.695      80.060    -510.472
  H      -76.185      77.622    -504.392
  H      -80.492      77.586    -510.818
  H      -80.308      79.078    -512.781
  H      -78.552      79.088    -512.661
  P      -80.702      81.607    -509.612
  C      -79.561      83.290    -507.949
  O      -79.753      81.956    -508.380
  O      -82.174      81.849    -509.026
  O      -80.440      82.444    -510.825
  H      -82.775      82.158    -509.727
  H      -78.892      83.302    -507.114
  H      -80.501      83.710    -507.659
  H      -79.144      83.867    -508.748

 6  7  8  9  10  11  12  13  14  15  26  29  33  34 0
 6-311+G(2d,p)
 ****
 36  38  39  40  41 0
 6-311+G(2d,p)
 ****
 1  2  3  4  5  16  17  18  19  20  21  22  23  24  25 0
 3-21G
 ****
 27  28  30  31  32  35  37  42  43  44  45  46  47 0
 3-21G
 ****
 48  49 0
 3-21G
 ****


