%nproc=1
%NoSave
%Mem=1900MB
#P OB98/GEN NMR

erre ene a

0 1
  C      327.511     307.037    -166.628
  O      327.473     306.440    -167.911
  P      327.663     304.844    -167.999
  C      330.009     304.075    -168.921
  O      329.245     304.586    -167.843
  C      330.432     305.220    -169.851
  O      331.259     306.155    -169.133
  C      331.256     304.780    -171.064
  O      330.442     304.194    -172.057
  C      331.911     306.103    -171.460
  O      330.985     306.905    -172.220
  C      332.175     306.749    -170.091
  N      333.562     306.606    -169.639
  C      334.472     307.515    -170.176
  O      334.168     308.389    -170.982
  N      335.774     307.363    -169.769
  C      336.253     306.382    -168.942
  O      337.435     306.265    -168.640
  C      335.242     305.434    -168.426
  C      333.974     305.594    -168.792
  O      327.365     304.599    -169.547
  O      326.784     304.097    -167.053
  H      327.572     305.388    -170.085
  H      331.516     307.626    -172.622
  H      336.460     308.024    -170.124
  H      335.583     304.637    -167.784
  H      333.220     304.898    -168.437
  H      331.933     307.817    -170.119
  H      332.809     305.953    -172.074
  H      332.027     304.068    -170.745
  H      329.520     305.742    -170.180
  H      329.405     303.354    -169.473
  H      330.892     303.567    -168.516
  P      331.129     303.030    -172.950
  C      331.657     303.690    -175.431
  O      332.006     303.777    -174.065
  O      329.869     302.468    -173.755
  O      331.862     302.000    -172.134
  H      329.270     303.165    -174.073
  H      332.127     304.515    -175.968
  H      330.567     303.750    -175.556
  H      332.024     302.745    -175.840
  H      327.372     308.094    -166.722
  H      328.459     306.841    -166.171
  H      326.731     306.627    -166.021

 3  4  5  6  7  8  9  10  11  12  13  24  28  29  30  31  32 0
 6-311+G(2d,p)
 ****
 33  34 0
 6-311+G(2d,p)
 ****
 1  2  14  15  16  17  18  19  20  21  22  23  25  26  27 0
 3-21G
 ****
 35  36  37  38  39  40  41  42  43  44  45 0
 3-21G
 ****


