%nproc=1
%NoSave
%Mem=1900MB
#P OB98/GEN NMR

erre ene a

0 1
  C     -881.888    -923.228     586.897
  O     -882.724    -923.894     585.971
  H     -882.015    -923.696     587.881
  H     -882.167    -922.177     586.969
  H     -880.839    -923.323     586.604
  P     -882.609    -923.522     584.417
  C     -881.297    -925.564     583.570
  O     -882.545    -924.901     583.603
  C     -881.349    -926.736     582.589
  O     -882.136    -927.825     583.150
  C     -882.021    -926.392     581.268
  O     -881.170    -925.620     580.439
  C     -882.353    -927.788     580.748
  O     -881.212    -928.379     580.107
  C     -882.714    -928.544     582.044
  N     -884.168    -928.685     582.204
  C     -884.612    -929.872     582.752
  O     -883.869    -930.780     583.103
  N     -885.976    -930.018     582.837
  C     -886.903    -929.157     582.296
  O     -888.078    -929.438     582.176
  C     -886.369    -927.880     581.790
  C     -885.043    -927.708     581.745
  O     -881.548    -922.533     584.069
  O     -884.069    -922.961     584.053
  H     -884.035    -921.993     584.027
  H     -881.021    -927.834     579.329
  H     -886.310    -930.902     583.179
  H     -887.067    -927.156     581.422
  H     -884.621    -926.788     581.352
  H     -882.266    -929.540     582.038
  H     -883.159    -927.761     580.010
  H     -882.956    -925.864     581.455
  H     -880.324    -927.104     582.423
  H     -881.070    -925.953     584.583
  H     -880.507    -924.864     583.289
  P     -881.799    -924.501     579.475
  C     -881.365    -922.535     581.085
  O     -881.088    -923.102     579.799
  O     -883.293    -924.450     579.438
  O     -881.203    -924.870     578.022
  H     -881.940    -924.888     577.387
  H     -880.839    -921.609     581.187
  H     -881.046    -923.212     581.850
  H     -882.416    -922.361     581.179

 6  7  8  9  10  11  12  13  14  15  16  27  31  32  33  34  35 0
 6-311+G(2d,p)
 ****
 36  37 0
 6-311+G(2d,p)
 ****
 1  2  3  4  5  17  18  19  20  21  22  23  24  25 0
 3-21G
 ****
 26  28  29  30  38  39  40  41  42  43  44  45 0
 3-21G
 ****


