%nproc=1
%NoSave
%Mem=1900MB
#P OB98/GEN NMR

erre ene a

0 1
  C      416.606    -555.293     -37.051
  O      417.000    -555.466     -35.704
  H      417.175    -555.986     -37.680
  H      416.816    -554.269     -37.381
  H      415.539    -555.507     -37.165
  P      416.360    -554.470     -34.626
  C      415.887    -556.537     -33.127
  O      416.410    -555.223     -33.210
  C      416.101    -557.085     -31.712
  O      415.552    -556.153     -30.741
  C      415.398    -558.405     -31.444
  O      416.097    -559.517     -31.983
  C      415.369    -558.418     -29.926
  O      416.595    -558.916     -29.373
  C      415.173    -556.925     -29.587
  N      413.801    -556.639     -29.165
  C      413.367    -557.322     -28.034
  O      414.074    -558.122     -27.408
  N      412.071    -557.095     -27.654
  C      411.177    -556.302     -28.315
  O      410.015    -556.185     -27.961
  C      411.689    -555.617     -29.510
  C      412.958    -555.820     -29.881
  O      414.806    -554.469     -35.005
  O      416.938    -553.088     -34.621
  H      414.575    -553.625     -35.434
  H      416.721    -559.797     -29.777
  H      411.744    -557.582     -26.838
  H      411.005    -554.981     -30.065
  H      413.359    -555.333     -30.766
  H      415.853    -556.627     -28.773
  H      414.558    -559.049     -29.557
  H      414.362    -558.375     -31.823
  H      417.181    -557.171     -31.534
  H      416.411    -557.189     -33.839
  H      414.825    -556.517     -33.384
  P      415.233    -560.795     -32.442
  C      417.583    -561.789     -33.109
  O      416.278    -562.004     -32.577
  O      414.884    -560.385     -33.946
  O      414.052    -561.048     -31.570
  H      415.560    -559.792     -34.326
  H      418.122    -562.713     -33.115
  H      418.103    -561.077     -32.502
  H      417.504    -561.415     -34.109

 6  7  8  9  10  11  12  13  14  15  16  27  31  32  33  34  35 0
 6-311+G(2d,p)
 ****
 36  37 0
 6-311+G(2d,p)
 ****
 1  2  3  4  5  17  18  19  20  21  22  23  24  25 0
 3-21G
 ****
 26  28  29  30  38  39  40  41  42  43  44  45 0
 3-21G
 ****


