%nproc=1
%NoSave
%Mem=1900MB
#P OB98/GEN NMR

erre ene a

0 1
  C       32.449     -25.434     229.492
  O       32.601     -24.942     228.175
  H       32.320     -26.520     229.453
  H       31.564     -24.992     229.958
  H       33.337     -25.206     230.090
  P       32.920     -23.379     228.011
  C       31.475     -21.218     228.188
  O       31.500     -22.626     228.014
  C       30.124     -20.660     227.729
  O       29.970     -20.927     226.308
  C       28.928     -21.303     228.448
  O       27.919     -20.308     228.653
  C       28.437     -22.338     227.448
  O       27.071     -22.698     227.621
  C       28.715     -21.620     226.126
  N       28.792     -22.541     224.989
  C       27.639     -23.244     224.655
  O       26.544     -23.094     225.193
  N       27.781     -24.166     223.645
  C       28.934     -24.457     222.975
  O       28.998     -25.309     222.097
  C       30.122     -23.688     223.378
  C       29.997     -22.781     224.354
  O       33.395     -23.255     226.489
  O       33.916     -22.817     228.972
  H       34.364     -23.371     226.420
  H       26.524     -22.027     227.165
  H       26.953     -24.684     223.387
  H       31.053     -23.899     222.877
  H       30.856     -22.207     224.687
  H       27.948     -20.859     225.934
  H       29.038     -23.254     227.529
  H       29.200     -21.757     229.403
  H       30.124     -19.571     227.857
  H       32.271     -20.767     227.586
  H       31.645     -20.980     229.244
  P       27.534     -19.950     230.173
  C       25.996     -21.117     231.940
  O       26.341     -20.952     230.572
  O       26.821     -18.531     229.994
  O       28.715     -19.954     231.088
  H       26.287     -18.466     229.181
  H       25.188     -21.814     232.023
  H       25.697     -20.174     232.349
  H       26.843     -21.487     232.479

 6  7  8  9  10  11  12  13  14  15  16  27  31  32  33  34  35 0
 6-311+G(2d,p)
 ****
 36  37 0
 6-311+G(2d,p)
 ****
 1  2  3  4  5  17  18  19  20  21  22  23  24  25 0
 3-21G
 ****
 26  28  29  30  38  39  40  41  42  43  44  45 0
 3-21G
 ****


