%nproc=1
%NoSave
%Mem=1900MB
#P OB98/GEN NMR

erre ene a

0 1
  C     -189.386    -332.134     550.168
  O     -189.883    -330.825     549.964
  H     -189.191    -332.590     549.193
  H     -190.128    -332.738     550.698
  H     -188.453    -332.104     550.738
  P     -190.075    -329.914     551.266
  C     -192.665    -329.839     550.830
  O     -191.602    -330.079     551.744
  C     -193.989    -329.745     551.582
  O     -194.305    -330.986     552.246
  C     -193.986    -328.724     552.707
  O     -193.985    -327.393     552.237
  C     -195.261    -329.118     553.438
  O     -196.423    -328.608     552.768
  C     -195.201    -330.664     553.338
  N     -194.787    -331.288     554.584
  C     -195.763    -331.353     555.590
  O     -196.892    -330.908     555.388
  N     -195.421    -331.894     556.806
  C     -194.224    -332.355     556.995
  N     -193.947    -332.867     558.222
  C     -193.176    -332.328     555.955
  C     -193.519    -331.783     554.789
  O     -190.054    -328.431     550.663
  O     -189.087    -330.151     552.362
  H     -196.478    -327.658     552.999
  H     -190.689    -328.294     549.942
  H     -192.190    -332.733     556.154
  H     -192.809    -331.724     553.973
  H     -196.190    -331.066     553.067
  H     -195.288    -328.727     554.457
  H     -193.139    -328.907     553.381
  H     -194.782    -329.533     550.853
  H     -194.684    -332.849     558.917
  H     -192.709    -330.625     550.066
  H     -193.040    -333.225     558.496
  H     -192.452    -328.893     550.317
  P     -193.706    -326.173     553.243
  C     -195.913    -325.079     552.503
  O     -195.141    -325.550     553.603
  O     -192.697    -325.180     552.771
  O     -193.304    -326.910     554.610
  H     -193.990    -327.500     554.969
  H     -196.843    -324.688     552.861
  H     -196.102    -325.887     551.828
  H     -195.374    -324.307     551.994

 6  7  8  9  10  11  12  13  14  15  16  26  30  31  32  33  35 0
 6-311+G(2d,p)
 ****
 37  38 0
 6-311+G(2d,p)
 ****
 1  2  3  4  5  17  18  19  20  21  22  23  24  25 0
 3-21G
 ****
 27  28  29  34  36  39  40  41  42  43  44  45  46 0
 3-21G
 ****


