%nproc=1
%NoSave
%Mem=1900MB
#P OB98/GEN NMR

erre ene a

0 1
  C     -159.975     541.689    -299.653
  O     -161.016     541.062    -300.383
  P     -161.577     539.662    -299.820
  C     -164.000     540.536    -299.481
  O     -162.824     540.012    -298.868
  C     -165.224     540.306    -298.591
  O     -165.440     538.872    -298.450
  C     -165.104     540.892    -297.174
  O     -166.421     541.324    -296.793
  C     -164.677     539.672    -296.367
  O     -164.851     539.824    -294.966
  C     -165.506     538.595    -297.032
  N     -166.852     533.683    -296.552
  C     -167.556     534.776    -296.928
  N     -167.128     536.053    -297.033
  C     -165.815     536.146    -296.733
  C     -164.976     535.122    -296.333
  C     -165.545     533.834    -296.249
  N     -164.823     532.724    -295.861
  N     -163.707     535.599    -296.092
  C     -163.775     536.891    -296.336
  N     -165.028     537.255    -296.747
  O     -160.449     539.209    -298.781
  O     -161.833     538.621    -300.865
  H     -164.364     540.613    -294.645
  H     -160.300     538.253    -298.818
  H     -168.600     534.609    -297.152
  H     -162.969     537.598    -296.219
  H     -166.564     538.647    -296.730
  H     -163.603     539.498    -296.538
  H     -164.420     541.739    -297.110
  H     -166.106     540.716    -299.092
  H     -164.177     540.031    -300.439
  H     -165.354     531.900    -295.641
  H     -163.919     532.882    -295.446
  H     -163.859     541.600    -299.679
  P     -166.563     542.646    -295.899
  C     -166.651     544.050    -298.055
  O     -165.974     543.825    -296.834
  O     -165.371     542.443    -294.841
  O     -167.898     542.876    -295.283
  H     -164.532     542.241    -295.292
  H     -166.204     544.924    -298.539
  H     -167.712     544.241    -297.871
  H     -166.529     543.185    -298.710
  H     -159.701     542.604    -300.136
  H     -159.126     541.039    -299.613
  H     -160.312     541.898    -298.659

 3  4  5  6  7  8  9  10  11  12  22  25  29  30  31  32 0
 6-311+G(2d,p)
 ****
 33  36  37 0
 6-311+G(2d,p)
 ****
 1  2  13  14  15  16  17  18  19  20  21  23  24  26 0
 3-21G
 ****
 27  28  34  35  38  39  40  41  42  43  44  45  46  47  48 0
 3-21G
 ****


