%nproc=1
%NoSave
%Mem=1900MB
#P OB98/GEN NMR

erre ene a

0 1
  C       71.860      46.587      75.280
  O       72.164      47.119      76.555
  H       70.787      46.694      75.105
  H       72.118      45.525      75.237
  H       72.397      47.134      74.501
  P       73.678      47.045      77.072
  C       73.315      44.753      78.204
  O       74.026      45.486      77.214
  C       73.956      43.383      78.410
  O       73.737      42.547      77.257
  C       75.468      43.424      78.632
  O       75.767      43.741      79.979
  C       75.838      41.994      78.273
  O       75.488      41.115      79.361
  C       74.921      41.724      77.066
  N       76.175      39.899      72.498
  C       75.714      39.238      73.620
  N       75.602      37.896      73.520
  N       75.406      39.836      74.741
  C       75.635      41.168      74.719
  C       76.105      41.934      73.676
  C       76.380      41.269      72.419
  O       76.766      41.823      71.393
  N       76.299      43.237      74.055
  C       75.895      43.271      75.311
  N       75.491      42.036      75.767
  O       73.996      47.852      78.294
  O       74.549      47.500      75.809
  H       75.929      41.459      80.160
  H       74.719      48.460      75.825
  H       76.404      39.385      71.664
  H       75.870      44.157      75.934
  H       74.592      40.679      77.025
  H       76.906      41.866      78.086
  H       75.963      37.367      72.740
  H       75.958      44.105      77.928
  H       75.321      37.389      74.351
  H       73.449      42.901      79.257
  H       72.283      44.643      77.857
  H       73.308      45.300      79.153
  P       76.900      44.818      80.357
  C       78.552      42.952      81.048
  O       78.294      44.046      80.185
  O       76.715      45.483      81.677
  O       76.920      45.821      79.114
  H       76.244      46.540      79.187
  H       79.511      42.537      80.820
  H       77.798      42.205      80.912
  H       78.541      43.289      82.064

 6  7  8  9  10  11  12  13  14  15  26  29  33  34 0
 6-311+G(2d,p)
 ****
 36  38  39  40  41 0
 6-311+G(2d,p)
 ****
 1  2  3  4  5  16  17  18  19  20  21  22  23  24  25 0
 3-21G
 ****
 27  28  30  31  32  35  37  42  43  44  45  46  47 0
 3-21G
 ****
 48  49 0
 3-21G
 ****


