%nproc=1
%NoSave
%Mem=1900MB
#P OB98/GEN NMR

erre ene a

0 1
  C      -11.975    -880.830     245.495
  O      -13.102    -881.489     246.049
  H      -11.264    -881.586     245.148
  H      -11.481    -880.223     246.261
  H      -12.279    -880.206     244.658
  P      -14.241    -880.547     246.662
  C      -15.851    -881.770     245.021
  O      -15.641    -881.281     246.349
  C      -17.071    -882.694     244.999
  O      -18.255    -881.984     245.433
  C      -17.388    -883.270     243.631
  O      -16.593    -884.404     243.333
  C      -18.867    -883.616     243.777
  O      -19.041    -884.867     244.462
  C      -19.377    -882.448     244.627
  N      -23.372    -879.393     244.034
  C      -23.130    -880.373     244.965
  N      -24.124    -880.620     245.844
  N      -22.016    -881.074     245.036
  C      -21.121    -880.741     244.057
  C      -21.240    -879.785     243.089
  C      -22.469    -879.000     243.047
  O      -22.716    -878.072     242.275
  N      -20.119    -879.730     242.297
  C      -19.344    -880.693     242.790
  N      -19.926    -881.343     243.852
  O      -14.258    -879.291     245.663
  O      -14.045    -880.118     248.080
  H      -18.581    -885.573     243.959
  H      -14.531    -878.489     246.159
  H      -24.233    -878.893     244.031
  H      -18.353    -880.933     242.399
  H      -20.170    -882.750     245.322
  H      -19.347    -883.708     242.800
  H      -25.080    -880.387     245.647
  H      -17.258    -882.501     242.830
  H      -23.954    -881.362     246.527
  H      -16.886    -883.504     245.723
  H      -14.965    -882.337     244.702
  H      -16.004    -880.931     244.356
  P      -16.720    -885.067     241.890
  C      -14.465    -886.107     242.684
  O      -15.563    -886.183     241.787
  O      -16.213    -883.927     240.894
  O      -18.095    -885.554     241.543
  H      -16.498    -884.117     239.971
  H      -13.789    -886.913     242.489
  H      -14.821    -886.176     243.691
  H      -13.957    -885.175     242.548

 6  7  8  9  10  11  12  13  14  15  26  29  33  34 0
 6-311+G(2d,p)
 ****
 36  38  39  40  41 0
 6-311+G(2d,p)
 ****
 1  2  3  4  5  16  17  18  19  20  21  22  23  24  25 0
 3-21G
 ****
 27  28  30  31  32  35  37  42  43  44  45  46  47 0
 3-21G
 ****
 48  49 0
 3-21G
 ****


