%nproc=1
%NoSave
%Mem=1900MB
#P OB98/GEN NMR

erre ene a

0 1
  C      -13.838    -325.258    -418.668
  O      -14.750    -324.176    -418.625
  H      -14.395    -326.182    -418.863
  H      -13.321    -325.353    -417.711
  H      -13.110    -325.107    -419.472
  P      -14.134    -322.742    -418.246
  C      -13.485    -322.297    -420.736
  O      -13.044    -322.484    -419.397
  C      -13.650    -320.807    -421.021
  O      -12.456    -320.086    -420.654
  C      -13.886    -320.476    -422.495
  O      -15.227    -320.716    -422.905
  C      -13.544    -319.003    -422.500
  O      -14.627    -318.247    -421.922
  C      -12.293    -318.978    -421.584
  N      -11.038    -319.101    -422.328
  C      -10.600    -317.966    -423.017
  O      -11.267    -316.927    -423.005
  N       -9.436    -318.043    -423.747
  C       -8.758    -319.149    -423.764
  N       -7.620    -319.172    -424.517
  C       -9.174    -320.361    -423.040
  C      -10.304    -320.269    -422.352
  O      -13.219    -323.049    -416.968
  O      -15.119    -321.636    -418.047
  H      -15.444    -318.550    -422.359
  H      -12.695    -322.246    -416.727
  H       -8.582    -321.265    -423.101
  H      -10.673    -321.127    -421.794
  H      -12.263    -318.051    -420.993
  H      -13.379    -318.599    -423.506
  H      -13.182    -321.005    -423.142
  H      -14.470    -320.428    -420.393
  H       -7.391    -318.343    -425.055
  H      -14.443    -322.817    -420.860
  H       -7.129    -320.032    -424.738
  H      -12.761    -322.725    -421.433
  P      -15.479    -321.094    -424.444
  C      -15.540    -323.629    -423.837
  O      -14.960    -322.606    -424.640
  O      -14.382    -320.226    -425.217
  O      -16.867    -320.828    -424.946
  H      -14.736    -319.877    -426.057
  H      -15.094    -324.570    -424.082
  H      -16.593    -323.674    -424.022
  H      -15.368    -323.411    -422.803

 6  7  8  9  10  11  12  13  14  15  16  26  30  31  32  33  35 0
 6-311+G(2d,p)
 ****
 37  38 0
 6-311+G(2d,p)
 ****
 1  2  3  4  5  17  18  19  20  21  22  23  24  25 0
 3-21G
 ****
 27  28  29  34  36  39  40  41  42  43  44  45  46 0
 3-21G
 ****


