%nproc=1
%NoSave
%Mem=1900MB
#P OB98/GEN NMR

erre ene a

0 1
  C     -156.080    -168.977     -75.118
  O     -156.315    -170.338     -75.426
  H     -156.842    -168.369     -75.611
  H     -155.095    -168.673     -75.486
  H     -156.141    -168.818     -74.038
  P     -155.254    -171.392     -74.842
  C     -154.078    -171.338     -77.151
  O     -153.932    -171.248     -75.742
  C     -152.757    -171.742     -77.801
  O     -151.750    -170.730     -77.583
  C     -152.180    -173.056     -77.286
  O     -152.765    -174.163     -77.949
  C     -150.704    -172.881     -77.621
  O     -150.453    -173.168     -79.014
  C     -150.482    -171.391     -77.323
  N     -146.442    -170.929     -74.330
  C     -146.532    -171.319     -75.650
  N     -145.376    -171.666     -76.262
  N     -147.656    -171.379     -76.317
  C     -148.735    -171.061     -75.565
  C     -148.777    -170.663     -74.248
  C     -147.521    -170.549     -73.541
  O     -147.368    -170.129     -72.397
  N     -150.067    -170.408     -73.847
  C     -150.799    -170.688     -74.906
  N     -150.038    -171.093     -75.973
  O     -155.852    -172.810     -75.290
  O     -155.045    -171.339     -73.365
  H     -149.502    -173.063     -79.192
  H     -155.697    -173.456     -74.575
  H     -145.547    -170.872     -73.878
  H     -151.879    -170.604     -74.957
  H     -149.742    -170.947     -78.000
  H     -150.077    -173.567     -77.048
  H     -144.550    -171.920     -75.739
  H     -152.295    -173.138     -76.198
  H     -145.455    -172.022     -77.206
  H     -152.926    -171.797     -78.884
  H     -154.389    -170.361     -77.538
  H     -154.848    -172.079     -77.386
  P     -153.149    -175.452     -77.080
  C     -151.219    -177.023     -77.822
  O     -151.797    -176.262     -76.770
  O     -153.914    -176.382     -78.134
  O     -154.011    -175.169     -75.892
  H     -154.870    -176.364     -77.959
  H     -150.330    -177.503     -77.468
  H     -150.974    -176.375     -78.638
  H     -151.917    -177.764     -78.152

 6  7  8  9  10  11  12  13  14  15  26  29  33  34 0
 6-311+G(2d,p)
 ****
 36  38  39  40  41 0
 6-311+G(2d,p)
 ****
 1  2  3  4  5  16  17  18  19  20  21  22  23  24  25 0
 3-21G
 ****
 27  28  30  31  32  35  37  42  43  44  45  46  47 0
 3-21G
 ****
 48  49 0
 3-21G
 ****


