%nproc=1
%NoSave
%Mem=1900MB
#P OB98/GEN NMR

erre ene a

0 1
  C       14.267     -20.876      61.672
  O       12.867     -20.780      61.893
  P       12.317     -21.174      63.350
  C       10.960     -23.249      62.608
  O       12.082     -22.764      63.336
  C       11.000     -24.770      62.504
  O       12.229     -25.164      61.832
  C       10.958     -25.500      63.857
  O       10.064     -26.619      63.766
  C       12.369     -26.049      64.009
  O       12.407     -27.195      64.850
  C       12.719     -26.320      62.546
  N       16.633     -29.430      63.281
  C       15.282     -29.654      63.461
  N       14.932     -30.861      63.964
  N       14.354     -28.777      63.180
  C       14.847     -27.627      62.656
  C       16.161     -27.290      62.422
  C       17.180     -28.251      62.796
  O       18.397     -28.077      62.744
  N       16.265     -26.040      61.865
  C       15.019     -25.618      61.765
  N       14.124     -26.525      62.280
  O       10.833     -20.570      63.343
  O       13.109     -20.646      64.497
  H       13.347     -27.396      65.017
  H       10.721     -19.963      64.099
  H       17.306     -30.136      63.533
  H       14.720     -24.657      61.364
  H       12.177     -27.202      62.177
  H       13.012     -25.273      64.441
  H       15.593     -31.596      64.169
  H       10.671     -24.866      64.700
  H       13.945     -31.054      64.080
  H       10.170     -25.097      61.862
  H       10.970     -22.819      61.601
  H       10.042     -22.932      63.117
  P        9.087     -26.842      65.021
  C       10.320     -28.914      66.017
  O        9.982     -27.547      66.150
  O        8.109     -28.012      64.526
  O        8.347     -25.615      65.440
  H        7.263     -27.977      65.010
  H       10.049     -29.313      65.032
  H        9.798     -29.487      66.785
  H       11.398     -29.031      66.157
  H       14.490     -20.586      60.667
  H       14.585     -21.885      61.831
  H       14.781     -20.229      62.352

 3  4  5  6  7  8  9  10  11  12  23  26  30  31  33  0
 6-311+G(2d,p)
 ****
 35  36  37  38 0
 6-311+G(2d,p)
 ****
 1  2  13  14  15  16  17  18  19  20  21  22  24  25  27  28  29 0
 3-21G
 ****
 32  34  39  40  41  42  43  44  45  46  47  48  49 0
 3-21G
 ****


