%nproc=1
%NoSave
%Mem=1900MB
#P OB98/GEN NMR

erre ene a

0 1
  C     -132.261    1161.765    -173.021
  O     -131.610    1162.757    -172.253
  H     -133.044    1162.238    -173.615
  H     -132.727    1161.015    -172.378
  H     -131.553    1161.277    -173.710
  P     -130.346    1162.334    -171.359
  C     -128.509    1163.433    -172.780
  O     -129.233    1163.486    -171.562
  C     -127.573    1164.620    -172.901
  O     -128.354    1165.818    -173.062
  C     -126.671    1164.823    -171.665
  O     -125.388    1165.260    -172.112
  C     -127.356    1165.951    -170.913
  O     -126.450    1166.680    -170.098
  C     -127.969    1166.764    -172.035
  N     -129.445    1170.667    -169.168
  C     -128.190    1170.216    -169.470
  N     -127.140    1170.876    -168.900
  N     -127.945    1169.185    -170.264
  C     -129.083    1168.623    -170.772
  C     -130.381    1168.979    -170.535
  C     -130.626    1170.104    -169.658
  O     -131.744    1170.544    -169.339
  N     -131.241    1168.144    -171.217
  C     -130.438    1167.287    -171.849
  N     -129.121    1167.534    -171.589
  O     -129.845    1160.943    -171.562
  O     -130.844    1162.573    -169.854
  H     -126.978    1167.330    -169.586
  H     -131.103    1161.738    -169.433
  H     -129.586    1171.451    -168.546
  H     -130.786    1166.497    -172.491
  H     -127.262    1167.502    -172.484
  H     -128.134    1165.520    -170.263
  H     -127.248    1171.663    -168.282
  H     -126.561    1163.910    -171.062
  H     -126.213    1170.568    -169.115
  H     -126.968    1164.510    -173.815
  H     -129.221    1163.436    -173.607
  H     -127.931    1162.497    -172.828
  P     -124.114    1164.330    -171.887
  C     -123.681    1163.102    -174.132
  O     -123.314    1164.201    -173.268
  O     -124.399    1163.009    -171.207
  O     -123.131    1165.233    -171.001
  H     -122.601    1164.669    -170.433
  H     -123.078    1163.126    -175.016
  H     -124.713    1163.189    -174.402
  H     -123.524    1162.177    -173.618

 6  7  8  9  10  11  12  13  14  15  26  29  33  34 0
 6-311+G(2d,p)
 ****
 36  38  39  40  41 0
 6-311+G(2d,p)
 ****
 1  2  3  4  5  16  17  18  19  20  21  22  23  24  25 0
 3-21G
 ****
 27  28  30  31  32  35  37  42  43  44  45  46  47 0
 3-21G
 ****
 48  49 0
 3-21G
 ****


