%nproc=1
%NoSave
%Mem=1900MB
#P OB98/GEN NMR

erre ene a

0 1
  C      126.895    -443.860      76.917
  O      127.796    -444.441      75.973
  P      127.469    -445.879      75.355
  C      128.215    -445.370      72.931
  O      128.430    -446.149      74.100
  C      129.302    -445.664      71.893
  O      130.605    -445.233      72.359
  C      129.464    -447.152      71.611
  O      128.410    -447.787      70.915
  C      130.848    -447.214      70.986
  O      130.811    -446.900      69.594
  C      131.595    -446.109      71.772
  N      132.496    -446.648      72.787
  C      133.789    -446.939      72.364
  O      134.169    -446.799      71.204
  N      134.635    -447.433      73.323
  C      134.310    -447.691      74.621
  O      135.099    -448.155      75.434
  C      132.920    -447.389      75.003
  C      132.090    -446.890      74.083
  O      126.026    -446.172      75.123
  O      128.066    -446.882      76.461
  H      131.725    -446.704      69.312
  H      127.436    -447.622      76.564
  H      135.577    -447.640      73.037
  H      132.624    -447.590      76.027
  H      131.063    -446.660      74.344
  H      132.192    -445.490      71.089
  H      131.288    -448.208      71.078
  H      129.533    -447.671      72.576
  H      129.078    -445.104      70.982
  H      128.210    -444.309      73.187
  H      127.217    -445.594      72.532
  P      127.312    -448.704      71.636
  C      125.068    -447.831      70.674
  O      126.050    -448.844      70.652
  O      127.034    -448.443      73.075
  O      127.985    -450.160      71.503
  H      127.733    -450.688      72.286
  H      124.280    -448.095      69.961
  H      125.501    -446.873      70.376
  H      124.623    -447.750      71.666
  H      127.267    -442.905      77.224
  H      126.810    -444.500      77.770
  H      125.933    -443.740      76.464

 3  4  5  6  7  8  9  10  11  12  13  23  28  29  30  31  32 0
 6-311+G(2d,p)
 ****
 33  34 0
 6-311+G(2d,p)
 ****
 1  2  14  15  16  17  18  19  20  21  22  24  25  26  27 0
 3-21G
 ****
 35  36  37  38  39  40  41  42  43  44  45 0
 3-21G
 ****


