%nproc=1
%NoSave
%Mem=1900MB
#P OB98/GEN NMR

erre ene a

0 1
  C       91.843     -61.393    -241.448
  O       92.994     -61.123    -242.251
  P       94.413     -61.511    -241.606
  C       95.916     -60.644    -239.681
  O       94.737     -60.445    -240.449
  C       96.163     -59.473    -238.721
  O       96.325     -58.224    -239.452
  C       95.031     -59.258    -237.710
  O       95.639     -58.801    -236.493
  C       94.244     -58.116    -238.326
  O       93.414     -57.471    -237.364
  C       95.395     -57.276    -238.878
  N       91.685     -54.128    -240.228
  C       91.736     -55.058    -239.208
  N       90.659     -55.124    -238.396
  N       92.755     -55.852    -239.000
  C       93.778     -55.645    -239.867
  C       93.854     -54.745    -240.905
  C       92.707     -53.897    -241.142
  O       92.611     -53.055    -242.027
  N       95.072     -54.813    -241.541
  C       95.696     -55.802    -240.919
  N       94.978     -56.299    -239.867
  O       95.452     -61.143    -242.767
  O       94.516     -62.944    -241.202
  H       94.001     -57.002    -236.732
  H       95.721     -61.950    -243.244
  H       90.868     -53.555    -240.350
  H       96.673     -56.176    -241.178
  H       95.916     -56.714    -238.092
  H       93.606     -58.489    -239.137
  H       89.863     -54.510    -238.469
  H       94.417     -60.142    -237.518
  H       90.687     -55.770    -237.615
  H       97.102     -59.664    -238.187
  H       96.778     -60.750    -240.344
  H       95.832     -61.591    -239.139
  P       95.012     -59.308    -235.110
  C       93.177     -58.456    -233.493
  O       93.759     -58.370    -234.781
  O       96.108     -58.859    -234.029
  O       94.764     -60.780    -235.037
  H       96.194     -59.550    -233.343
  H       92.697     -57.504    -233.259
  H       93.924     -58.673    -232.724
  H       92.419     -59.244    -233.492
  H       90.962     -61.096    -241.977
  H       91.911     -60.845    -240.531
  H       91.795     -62.440    -241.235

 3  4  5  6  7  8  9  10  11  12  23  26  30  31 0
 6-311+G(2d,p)
 ****
 33  35  36  37  38 0
 6-311+G(2d,p)
 ****
 1  2  13  14  15  16  17  18  19  20  21  22  24  25 0
 3-21G
 ****
 27  28  29  32  34  39  40  41  42  43  44  45  46  47  48  49 0
 3-21G
 ****


