%nproc=1
%NoSave
%Mem=1900MB
#P OB98/GEN NMR

erre ene a

0 1
  C       17.700     -51.609     -49.411
  O       18.425     -51.021     -48.350
  H       16.929     -52.275     -49.018
  H       17.218     -50.816     -49.990
  H       18.374     -52.165     -50.068
  P       19.223     -52.018     -47.377
  C       18.486     -53.770     -45.606
  O       18.116     -52.653     -46.403
  C       17.837     -53.655     -44.231
  O       18.467     -52.602     -43.468
  C       16.352     -53.309     -44.264
  O       15.542     -54.445     -44.512
  C       16.156     -52.789     -42.851
  O       16.087     -53.895     -41.932
  C       17.448     -51.992     -42.630
  N       19.242     -47.287     -41.720
  C       19.556     -48.489     -41.193
  N       19.029     -49.695     -41.485
  C       18.082     -49.583     -42.430
  C       17.649     -48.425     -43.054
  C       18.280     -47.230     -42.668
  N       17.952     -45.999     -43.194
  N       16.632     -48.702     -43.947
  C       16.481     -50.010     -43.885
  N       17.326     -50.586     -42.976
  O       20.035     -51.032     -46.412
  O       20.105     -53.013     -48.052
  H       15.880     -53.517     -41.056
  H       20.785     -51.505     -46.006
  H       20.333     -48.480     -40.433
  H       15.777     -50.582     -44.475
  H       17.801     -52.043     -41.593
  H       15.237     -52.213     -42.731
  H       16.142     -52.502     -44.977
  H       18.005     -54.600     -43.697
  H       19.573     -53.787     -45.493
  H       18.329     -45.192     -42.720
  H       17.138     -45.932     -43.786
  H       18.163     -54.689     -46.104
  P       14.279     -54.252     -45.482
  C       11.859     -53.349     -45.174
  O       13.098     -53.690     -44.557
  O       13.828     -55.753     -45.795
  O       14.559     -53.471     -46.724
  H       13.367     -55.805     -46.654
  H       11.177     -52.992     -44.431
  H       11.447     -54.215     -45.649
  H       12.023     -52.585     -45.905

 6  7  8  9  10  11  12  13  14  15  25  28  32  33  34  35 0
 6-311+G(2d,p)
 ****
 36  39  40 0
 6-311+G(2d,p)
 ****
 1  2  3  4  5  16  17  18  19  20  21  22  23  24 0
 3-21G
 ****
 26  27  29  30  31  37  38  41  42  43  44  45  46  47 0
 3-21G
 ****
 48 0
 3-21G
 ****


