%nproc=1
%NoSave
%Mem=1900MB
#P OB98/GEN NMR

erre ene a

0 1
  C      412.426      12.158     216.941
  O      413.615      11.424     216.766
  P      414.361      11.404     215.345
  C      412.783       9.395     215.025
  O      413.483      10.461     214.390
  C      411.426       9.187     214.364
  O      410.665      10.419     214.330
  C      411.507       8.759     212.905
  O      412.053       7.488     212.627
  C      410.082       9.013     212.440
  O      409.212       7.947     212.811
  C      409.729      10.300     213.230
  N      409.739      11.488     212.374
  C      408.657      11.631     211.519
  O      407.726      10.827     211.454
  N      408.681      12.727     210.697
  C      409.691      13.645     210.616
  O      409.675      14.577     209.827
  C      410.817      13.432     211.536
  C      410.795      12.379     212.361
  O      415.813      11.058     215.394
  O      414.062      12.861     214.753
  H      408.296       8.245     212.645
  H      413.116      13.067     214.636
  H      407.914      12.844     210.057
  H      411.628      14.149     211.510
  H      411.617      12.199     213.046
  H      408.729      10.211     213.676
  H      410.023       9.117     211.351
  H      412.148       9.474     212.372
  H      410.855       8.471     214.962
  H      412.631       9.651     216.079
  H      413.390       8.485     214.989
  P      413.419       7.272     211.821
  C      412.203       6.077     209.863
  O      413.066       7.124     210.264
  O      414.394       6.299     212.402
  O      414.059       8.742     211.871
  H      415.032       8.669     211.878
  H      412.110       6.102     208.773
  H      411.212       6.212     210.302
  H      412.613       5.109     210.159
  H      412.084      12.048     217.949
  H      411.679      11.792     216.268
  H      412.612      13.192     216.739

 3  4  5  6  7  8  9  10  11  12  13  23  28  29  30  31  32 0
 6-311+G(2d,p)
 ****
 33  34 0
 6-311+G(2d,p)
 ****
 1  2  14  15  16  17  18  19  20  21  22  24  25  26  27 0
 3-21G
 ****
 35  36  37  38  39  40  41  42  43  44  45 0
 3-21G
 ****


