%nproc=1
%NoSave
%Mem=1900MB
#P OB98/GEN NMR

erre ene a

0 1
  C     -882.869     847.278     734.113
  O     -883.982     848.032     734.544
  H     -882.176     847.937     733.583
  H     -883.182     846.484     733.441
  H     -882.344     846.849     734.980
  P     -885.166     847.210     735.255
  C     -886.741     848.764     733.871
  O     -886.434     848.195     735.131
  C     -887.924     849.729     734.005
  O     -889.129     849.009     734.363
  C     -887.749     850.789     735.087
  O     -886.908     851.863     734.700
  C     -889.199     851.244     735.241
  O     -889.565     852.062     734.105
  C     -889.933     849.882     735.191
  N     -890.115     849.286     736.528
  C     -891.016     849.952     737.390
  O     -891.600     850.968     737.021
  N     -891.199     849.455     738.655
  C     -890.558     848.383     739.028
  N     -890.765     847.943     740.295
  C     -889.607     847.644     738.154
  C     -889.449     848.154     736.935
  O     -884.798     847.295     736.806
  O     -885.401     845.825     734.744
  H     -890.475     852.368     734.273
  H     -885.544     846.940     737.356
  H     -889.100     846.778     738.523
  H     -888.761     847.668     736.235
  H     -890.912     849.986     734.716
  H     -889.388     851.831     736.147
  H     -887.426     850.351     736.032
  H     -888.090     850.186     733.019
  H     -891.384     848.491     740.889
  H     -886.988     847.961     733.177
  H     -890.228     847.203     740.735
  H     -885.870     849.314     733.491
  P     -885.550     852.065     735.530
  C     -885.985     854.629     735.487
  O     -885.074     853.573     735.270
  O     -884.485     851.185     734.718
  O     -885.622     851.660     736.983
  H     -883.829     850.786     735.319
  H     -885.509     855.562     735.268
  H     -886.302     854.622     736.509
  H     -886.835     854.504     734.849

 6  7  8  9  10  11  12  13  14  15  16  26  30  31  32  33  35 0
 6-311+G(2d,p)
 ****
 37  38 0
 6-311+G(2d,p)
 ****
 1  2  3  4  5  17  18  19  20  21  22  23  24  25 0
 3-21G
 ****
 27  28  29  34  36  39  40  41  42  43  44  45  46 0
 3-21G
 ****


