%nproc=1
%NoSave
%Mem=1900MB
#P OB98/GEN NMR

erre ene a

0 1
  C     -852.180    -698.958     458.433
  O     -853.475    -699.326     457.936
  P     -853.676    -700.551     456.910
  C     -854.078    -702.369     458.688
  O     -854.624    -701.656     457.599
  C     -854.860    -702.106     459.994
  O     -854.394    -700.898     460.629
  C     -856.351    -701.942     459.795
  O     -856.970    -703.206     459.646
  C     -856.731    -701.173     461.088
  O     -856.862    -702.092     462.186
  C     -855.514    -700.267     461.279
  N     -855.185    -695.290     462.385
  C     -854.876    -696.376     463.096
  N     -854.999    -697.683     462.748
  C     -855.477    -697.778     461.475
  C     -855.860    -696.736     460.622
  C     -855.690    -695.437     461.131
  N     -856.018    -694.306     460.409
  N     -856.315    -697.230     459.447
  C     -856.220    -698.541     459.552
  N     -855.706    -698.919     460.766
  O     -852.395    -701.110     456.356
  O     -854.572    -699.942     455.736
  H     -856.023    -702.561     462.281
  H     -854.402    -700.433     454.894
  H     -854.485    -696.195     464.089
  H     -856.487    -699.270     458.782
  H     -855.251    -700.173     462.354
  H     -857.678    -700.656     460.992
  H     -856.549    -701.298     458.925
  H     -854.644    -702.935     460.694
  H     -853.027    -702.057     458.833
  H     -855.909    -693.400     460.842
  H     -856.415    -694.407     459.479
  H     -854.081    -703.441     458.472
  P     -858.012    -703.436     458.436
  C     -857.948    -705.985     458.482
  O     -858.735    -704.843     458.706
  O     -857.478    -703.242     457.059
  O     -859.192    -702.372     458.735
  H     -859.614    -702.104     457.913
  H     -857.888    -706.206     457.406
  H     -858.407    -706.834     459.007
  H     -856.935    -705.841     458.875
  H     -852.276    -698.124     459.096
  H     -851.546    -698.691     457.613
  H     -851.752    -699.785     458.960

 3  4  5  6  7  8  9  10  11  12  22  25  29  30  31  32 0
 6-311+G(2d,p)
 ****
 33  36  37 0
 6-311+G(2d,p)
 ****
 1  2  13  14  15  16  17  18  19  20  21  23  24  26 0
 3-21G
 ****
 27  28  34  35  38  39  40  41  42  43  44  45  46  47  48 0
 3-21G
 ****


