%nproc=1
%NoSave
%Mem=1900MB
#P OB98/GEN NMR

erre ene a

0 1
  C       80.576     165.410     183.476
  O       80.771     166.740     183.923
  P       79.854     167.929     183.357
  C       79.616     169.050     181.046
  O       80.454     168.286     181.910
  C       80.309     169.306     179.704
  O       81.464     170.149     179.882
  C       80.820     168.043     179.018
  O       79.750     167.341     178.403
  C       81.837     168.631     178.044
  O       81.197     169.111     176.852
  C       82.427     169.804     178.855
  N       83.734     169.486     179.426
  C       84.839     170.056     178.776
  O       84.673     170.745     177.769
  N       86.100     169.782     179.257
  C       86.239     168.999     180.285
  N       87.517     168.760     180.707
  C       85.103     168.358     180.974
  C       83.893     168.639     180.501
  O       79.682     169.090     184.283
  O       78.477     167.189     183.003
  H       81.851     169.686     176.401
  H       77.965     166.963     183.821
  H       85.275     167.701     181.819
  H       83.006     168.207     180.948
  H       82.534     170.696     178.226
  H       82.584     167.888     177.737
  H       81.336     167.409     179.747
  H       79.600     169.829     179.047
  H       88.263     169.197     180.185
  H       79.405     170.009     181.530
  H       87.740     168.140     181.469
  H       78.666     168.523     180.894
  P       79.623     165.760     178.595
  C       81.286     163.795     178.655
  O       81.022     165.096     178.164
  O       78.407     165.135     177.991
  O       79.622     165.572     180.193
  H       78.925     164.928     180.433
  H       82.065     163.339     178.039
  H       80.383     163.173     178.613
  H       81.631     163.862     179.688
  H       81.277     164.764     183.963
  H       80.724     165.364     182.417
  H       79.580     165.097     183.711

 3  4  5  6  7  8  9  10  11  12  13  23  27  28  29  30  32 0
 6-311+G(2d,p)
 ****
 34  35 0
 6-311+G(2d,p)
 ****
 1  2  14  15  16  17  18  19  20  21  22  24  25  26 0
 3-21G
 ****
 31  33  36  37  38  39  40  41  42  43  44  45  46 0
 3-21G
 ****


