%nproc=1
%NoSave
%Mem=1900MB
#P OB98/GEN NMR

erre ene a

0 1
  C     -441.102    -851.401    -614.337
  O     -439.876    -851.001    -614.911
  H     -441.784    -850.548    -614.335
  H     -440.949    -851.729    -613.304
  H     -441.552    -852.212    -614.920
  P     -438.722    -852.119    -614.979
  C     -437.415    -850.709    -616.717
  O     -437.390    -851.358    -615.452
  C     -436.121    -849.919    -616.932
  O     -434.968    -850.774    -616.756
  C     -435.997    -849.289    -618.310
  O     -436.695    -848.056    -618.379
  C     -434.490    -849.116    -618.423
  O     -434.040    -847.941    -617.721
  C     -433.968    -850.389    -617.741
  N     -430.980    -852.039    -621.468
  C     -430.906    -850.888    -620.713
  N     -429.934    -850.019    -621.042
  N     -431.736    -850.600    -619.739
  C     -432.689    -851.549    -619.555
  C     -432.854    -852.744    -620.219
  C     -431.917    -853.051    -621.271
  O     -431.881    -854.089    -621.937
  N     -433.921    -853.442    -619.726
  C     -434.425    -852.656    -618.789
  N     -433.715    -851.491    -618.656
  O     -439.123    -852.987    -616.264
  O     -438.583    -852.968    -613.761
  H     -434.276    -847.150    -618.236
  H     -438.826    -853.909    -616.127
  H     -430.306    -852.207    -622.194
  H     -435.291    -852.898    -618.187
  H     -433.035    -850.215    -617.197
  H     -434.170    -849.006    -619.462
  H     -429.505    -850.012    -621.952
  H     -436.344    -849.987    -619.096
  H     -429.889    -849.157    -620.504
  H     -436.072    -849.149    -616.149
  H     -438.266    -850.015    -616.748
  H     -437.534    -851.456    -617.504
  P     -437.837    -847.904    -619.489
  C     -439.194    -846.771    -617.584
  O     -438.843    -846.769    -618.961
  O     -438.687    -849.250    -619.333
  O     -437.331    -847.718    -620.887
  H     -439.239    -849.395    -620.128
  H     -439.866    -845.962    -617.386
  H     -438.311    -846.655    -616.991
  H     -439.670    -847.697    -617.339

 6  7  8  9  10  11  12  13  14  15  26  29  33  34 0
 6-311+G(2d,p)
 ****
 36  38  39  40  41 0
 6-311+G(2d,p)
 ****
 1  2  3  4  5  16  17  18  19  20  21  22  23  24  25 0
 3-21G
 ****
 27  28  30  31  32  35  37  42  43  44  45  46  47 0
 3-21G
 ****
 48  49 0
 3-21G
 ****


