%nproc=1
%NoSave
%Mem=1900MB
#P OB98/GEN NMR

erre ene a

0 1
  C     1349.479     612.740    -266.446
  O     1348.119     613.047    -266.675
  H     1349.574     612.277    -265.458
  H     1350.094     613.644    -266.459
  H     1349.848     612.036    -267.194
  P     1347.727     613.807    -268.024
  C     1346.552     616.059    -268.597
  O     1347.179     615.262    -267.590
  C     1345.080     616.283    -268.263
  O     1344.370     615.025    -268.299
  C     1344.826     616.859    -266.877
  O     1345.120     618.246    -266.855
  C     1343.348     616.516    -266.691
  O     1342.516     617.436    -267.416
  C     1343.294     615.104    -267.331
  N     1343.394     614.032    -266.350
  C     1342.583     612.908    -266.577
  O     1341.804     612.865    -267.529
  N     1342.653     611.873    -265.672
  C     1343.469     611.916    -264.693
  N     1343.500     610.823    -263.832
  C     1344.397     613.031    -264.443
  C     1344.287     614.048    -265.285
  O     1346.822     613.076    -268.976
  O     1349.148     614.149    -268.705
  H     1342.709     618.319    -267.071
  H     1349.393     613.456    -269.341
  H     1345.070     613.030    -263.606
  H     1344.932     614.927    -265.184
  H     1342.350     614.971    -267.889
  H     1343.048     616.553    -265.652
  H     1345.403     616.323    -266.122
  H     1344.651     616.910    -269.041
  H     1342.843     610.074    -264.059
  H     1346.664     615.516    -269.529
  H     1344.202     610.685    -263.135
  H     1347.073     617.023    -268.691
  P     1345.797     618.933    -265.576
  C     1345.300     618.962    -263.044
  O     1344.832     618.622    -264.358
  O     1346.179     620.365    -265.762
  O     1347.047     617.981    -265.255
  H     1347.798     618.168    -265.899
  H     1344.555     618.700    -262.321
  H     1345.491     620.014    -262.995
  H     1346.202     618.425    -262.837

 6  7  8  9  10  11  12  13  14  15  16  26  30  31  32  33  35 0
 6-311+G(2d,p)
 ****
 37  38 0
 6-311+G(2d,p)
 ****
 1  2  3  4  5  17  18  19  20  21  22  23  24  25 0
 3-21G
 ****
 27  28  29  34  36  39  40  41  42  43  44  45  46 0
 3-21G
 ****


