%nproc=1
%NoSave
%Mem=1900MB
#P OB98/GEN NMR

erre ene a

0 1
  C      131.824    -112.745     719.813
  O      132.833    -111.777     719.573
  P      134.364    -112.250     719.660
  C      134.687    -111.651     722.183
  O      135.050    -111.406     720.832
  C      135.681    -110.962     723.122
  O      136.999    -111.528     722.977
  C      135.851    -109.473     722.848
  O      134.770    -108.718     723.382
  C      137.184    -109.182     723.515
  O      137.015    -108.951     724.920
  C      137.957    -110.489     723.252
  N      138.945    -110.361     722.193
  C      139.989    -109.476     722.427
  O      140.080    -108.816     723.461
  N      140.910    -109.354     721.426
  C      140.867    -109.965     720.210
  O      141.688    -109.767     719.328
  C      139.720    -110.862     719.995
  C      138.831    -111.019     720.980
  O      135.026    -111.670     718.328
  O      134.556    -113.724     719.785
  H      137.895    -108.733     725.284
  H      135.702    -112.291     717.993
  H      141.693    -108.728     721.594
  H      139.646    -111.368     719.037
  H      137.962    -111.671     720.838
  H      138.479    -110.805     724.167
  H      137.663    -108.285     723.097
  H      135.937    -109.297     721.760
  H      135.350    -111.119     724.157
  H      134.698    -112.735     722.369
  H      133.676    -111.283     722.360
  P      133.611    -108.272     722.355
  C      135.213    -106.905     720.806
  O      134.131    -106.901     721.717
  O      132.454    -107.849     723.387
  O      133.218    -109.358     721.406
  H      132.822    -107.468     724.213
  H      135.214    -107.807     720.182
  H      136.146    -106.862     721.367
  H      135.141    -106.035     720.166
  H      130.861    -112.287     719.721
  H      131.938    -113.141     720.800
  H      131.912    -113.537     719.099

 3  4  5  6  7  8  9  10  11  12  13  23  28  29  30  31  32 0
 6-311+G(2d,p)
 ****
 33  34 0
 6-311+G(2d,p)
 ****
 1  2  14  15  16  17  18  19  20  21  22  24  25  26 0
 3-21G
 ****
 27  35  36  37  38  39  40  41  42  43  44  45 0
 3-21G
 ****


