%nproc=1
%NoSave
%Mem=1900MB
#P OB98/GEN NMR

erre ene a

0 1
  C      954.049    -153.182    -111.606
  O      953.125    -153.687    -110.662
  H      954.699    -154.001    -111.930
  H      954.669    -152.408    -111.149
  H      953.535    -152.781    -112.480
  P      951.950    -152.727    -110.154
  C      952.337    -152.716    -107.604
  O      952.479    -151.999    -108.823
  C      952.538    -151.775    -106.420
  O      953.924    -151.358    -106.355
  C      951.731    -150.485    -106.513
  O      950.363    -150.707    -106.218
  C      952.474    -149.606    -105.525
  O      952.060    -149.877    -104.178
  C      953.941    -150.046    -105.737
  N      954.686    -149.089    -106.562
  C      954.780    -147.793    -106.075
  O      954.283    -147.440    -104.998
  N      955.408    -146.891    -106.886
  C      955.816    -147.126    -108.173
  O      956.151    -146.231    -108.942
  C      955.757    -148.523    -108.611
  C      955.186    -149.427    -107.810
  O      950.601    -153.363    -110.031
  O      951.938    -151.537    -111.232
  H      951.195    -151.676    -111.851
  H      951.225    -149.377    -104.053
  H      955.446    -145.937    -106.550
  H      956.138    -148.765    -109.595
  H      955.095    -150.465    -108.127
  H      954.457    -150.155    -104.780
  H      952.303    -148.549    -105.721
  H      951.830    -150.054    -107.523
  H      952.308    -152.322    -105.494
  H      953.091    -153.509    -107.565
  H      951.342    -153.172    -107.567
  P      949.296    -149.524    -106.379
  C      948.347    -149.714    -103.995
  O      949.028    -148.884    -104.931
  O      948.063    -149.881    -107.144
  O      950.120    -148.364    -107.133
  H      949.597    -148.057    -107.898
  H      948.225    -149.186    -103.072
  H      948.918    -150.603    -103.825
  H      947.386    -149.977    -104.385

 6  7  8  9  10  11  12  13  14  15  16  27  31  32  33  34  35 0
 6-311+G(2d,p)
 ****
 36  37 0
 6-311+G(2d,p)
 ****
 1  2  3  4  5  17  18  19  20  21  22  23  24  25 0
 3-21G
 ****
 26  28  29  30  38  39  40  41  42  43  44  45 0
 3-21G
 ****


