%nproc=1
%NoSave
%Mem=1900MB
#P OB98/GEN NMR

erre ene a

0 1
  C     -138.444     426.920    -147.702
  O     -139.623     426.171    -148.022
  P     -141.030     426.400    -147.283
  C     -140.896     424.614    -145.429
  O     -140.888     426.006    -145.737
  C     -141.460     424.351    -144.029
  O     -140.853     425.231    -143.066
  C     -142.959     424.572    -143.891
  O     -143.691     423.503    -144.465
  C     -143.099     424.701    -142.376
  O     -143.150     423.411    -141.749
  C     -141.800     425.444    -141.999
  N     -142.017     426.862    -141.753
  C     -142.017     427.271    -140.416
  O     -141.894     426.446    -139.511
  N     -142.177     428.609    -140.139
  C     -142.397     429.444    -141.103
  N     -142.542     430.757    -140.767
  C     -142.497     429.042    -142.517
  C     -142.296     427.747    -142.766
  O     -142.190     425.758    -147.973
  O     -141.219     427.991    -147.245
  H     -143.916     422.946    -142.139
  H     -142.173     428.199    -147.281
  H     -142.709     429.766    -143.288
  H     -142.343     427.367    -143.781
  H     -141.352     424.995    -141.105
  H     -144.005     425.238    -142.082
  H     -143.239     425.521    -144.363
  H     -141.199     423.319    -143.752
  H     -142.461     431.001    -139.789
  H     -139.867     424.245    -145.478
  H     -142.714     431.486    -141.441
  H     -141.495     424.089    -146.182
  P     -144.355     423.680    -145.912
  C     -146.751     423.665    -144.996
  O     -145.771     424.396    -145.710
  O     -144.375     422.453    -146.765
  O     -143.473     424.834    -146.593
  H     -143.440     424.681    -147.554
  H     -147.483     424.368    -144.585
  H     -146.301     423.100    -144.175
  H     -147.261     422.979    -145.678
  H     -137.635     426.593    -148.321
  H     -138.191     426.765    -146.674
  H     -138.626     427.961    -147.872

 3  4  5  6  7  8  9  10  11  12  13  23  27  28  29  30  32 0
 6-311+G(2d,p)
 ****
 34  35 0
 6-311+G(2d,p)
 ****
 1  2  14  15  16  17  18  19  20  21  22  24  25  26 0
 3-21G
 ****
 31  33  36  37  38  39  40  41  42  43  44  45  46 0
 3-21G
 ****


