%nproc=1
%NoSave
%Mem=1900MB
#P OB98/GEN NMR

erre ene a

0 1
  C     -567.538      98.339    -895.080
  O     -566.650      98.872    -896.070
  P     -565.104      99.057    -895.660
  C     -564.093      96.892    -896.690
  O     -564.444      97.594    -895.510
  C     -563.719      95.428    -896.390
  O     -562.528      95.380    -895.530
  C     -564.812      94.646    -895.650
  O     -564.717      93.276    -896.030
  C     -564.408      94.793    -894.200
  O     -565.041      93.801    -893.380
  C     -562.892      94.681    -894.320
  N     -560.068      93.596    -890.280
  C     -560.641      92.764    -891.220
  N     -560.396      91.435    -891.080
  N     -561.388      93.168    -892.210
  C     -561.509      94.521    -892.250
  C     -561.006      95.457    -891.370
  C     -560.200      94.969    -890.260
  O     -559.685      95.669    -889.400
  N     -561.376      96.738    -891.730
  C     -562.124      96.574    -892.800
  N     -562.203      95.249    -893.180
  O     -565.201      99.578    -894.160
  O     -564.359     100.009    -896.530
  H     -565.002      92.945    -893.870
  H     -564.942     100.520    -894.120
  H     -559.508      93.208    -889.530
  H     -562.612      97.356    -893.340
  H     -562.552      93.641    -894.410
  H     -564.707      95.782    -893.830
  H     -559.785      91.051    -890.380
  H     -565.831      94.997    -895.850
  H     -560.775      90.806    -891.770
  H     -563.463      94.924    -897.340
  H     -563.256      97.389    -897.190
  H     -564.936      96.942    -897.400
  P     -565.732      92.753    -897.140
  C     -564.202      93.500    -899.110
  O     -565.446      93.628    -898.460
  O     -567.152      93.262    -896.650
  O     -565.713      91.260    -897.360
  H     -567.859      92.710    -897.000
  H     -564.316      92.894    -900.000
  H     -563.444      93.040    -898.460
  H     -563.841      94.502    -899.400
  H     -568.526      98.271    -895.486
  H     -567.547      98.983    -894.226
  H     -567.204      97.365    -894.789

 3  4  5  6  7  8  9  10  11  12  23  26  30  31 0
 6-311+G(2d,p)
 ****
 33  35  36  37  38 0
 6-311+G(2d,p)
 ****
 1  2  13  14  15  16  17  18  19  20  21  22  24  25 0
 3-21G
 ****
 27  28  29  32  34  39  40  41  42  43  44  45  46  47  48  49 0
 3-21G
 ****


