%nproc=1
%NoSave
%Mem=1900MB
#P OB98/GEN NMR

erre ene a

0 1
  C     -428.044     -11.763    -392.593
  O     -428.509     -10.618    -391.908
  H     -427.095     -12.071    -392.147
  H     -427.875     -11.529    -393.646
  H     -428.756     -12.586    -392.503
  P     -429.972     -10.054    -392.253
  C     -431.150     -10.506    -390.004
  O     -431.015     -10.891    -391.368
  C     -430.820     -11.689    -389.097
  O     -429.460     -12.124    -389.329
  C     -430.896     -11.365    -387.609
  O     -432.236     -11.284    -387.164
  C     -430.086     -12.510    -387.027
  O     -430.882     -13.695    -386.900
  C     -428.984     -12.704    -388.091
  N     -427.715     -12.101    -387.680
  C     -426.655     -12.981    -387.481
  O     -426.741     -14.200    -387.643
  N     -425.493     -12.420    -387.028
  C     -425.340     -11.121    -386.630
  O     -424.365     -10.718    -386.003
  C     -426.472     -10.228    -386.920
  C     -427.594     -10.753    -387.414
  O     -430.301      -9.959    -393.705
  O     -429.989      -8.612    -391.553
  H     -429.853      -7.925    -392.234
  H     -430.301     -14.360    -386.471
  H     -424.731     -13.056    -386.840
  H     -426.363      -9.174    -386.689
  H     -428.455     -10.118    -387.607
  H     -428.821     -13.770    -388.283
  H     -429.701     -12.260    -386.036
  H     -430.375     -10.422    -387.411
  H     -431.492     -12.519    -389.351
  H     -432.186     -10.191    -389.829
  H     -430.479      -9.665    -389.804
  P     -432.861      -9.874    -386.735
  C     -434.403     -10.043    -388.786
  O     -433.534      -9.205    -388.029
  O     -431.944      -8.976    -385.971
  O     -434.135     -10.270    -385.846
  H     -434.100      -9.769    -385.006
  H     -434.791      -9.495    -389.619
  H     -435.212     -10.370    -388.167
  H     -433.859     -10.893    -389.141

 6  7  8  9  10  11  12  13  14  15  16  27  31  32  33  34  35 0
 6-311+G(2d,p)
 ****
 36  37 0
 6-311+G(2d,p)
 ****
 1  2  3  4  5  17  18  19  20  21  22  23  24  25 0
 3-21G
 ****
 26  28  29  30  38  39  40  41  42  43  44  45 0
 3-21G
 ****


