%nproc=1
%NoSave
%Mem=1900MB
#P OB98/GEN NMR

erre ene a

0 1
  C     -107.415     -88.291      -6.777
  O     -108.171     -87.167      -7.185
  H     -108.085     -89.001      -6.283
  H     -106.631     -88.001      -6.075
  H     -106.972     -88.779      -7.649
  P     -107.377     -85.864      -7.685
  C     -106.446     -85.141      -9.979
  O     -106.829     -86.236      -9.152
  C     -105.358     -85.551     -10.972
  O     -104.152     -85.937     -10.278
  C     -105.718     -86.756     -11.826
  O     -106.770     -86.539     -12.739
  C     -104.357     -87.187     -12.348
  O     -103.945     -86.430     -13.485
  C     -103.447     -86.862     -11.137
  N     -103.035     -88.061     -10.415
  C     -101.668     -88.307     -10.373
  O     -100.831     -87.590     -10.922
  N     -101.287     -89.436      -9.701
  C     -102.124     -90.345      -9.123
  O     -101.719     -91.351      -8.552
  C     -103.562     -90.051      -9.234
  C     -103.947     -88.938      -9.863
  O     -106.319     -85.353      -6.753
  O     -108.534     -84.804      -7.991
  H     -104.481     -86.738     -14.241
  H     -108.168     -83.889      -8.070
  H     -100.298     -89.625      -9.646
  H     -104.256     -90.756      -8.798
  H     -105.004     -88.698      -9.956
  H     -102.540     -86.341     -11.473
  H     -104.340     -88.240     -12.637
  H     -106.062     -87.559     -11.160
  H     -105.119     -84.680     -11.592
  H     -106.059     -84.350      -9.328
  H     -107.323     -84.763     -10.514
  P     -107.624     -87.711     -13.402
  C     -109.462     -89.370     -12.562
  O     -108.366     -88.524     -12.235
  O     -106.960     -88.490     -14.490
  O     -108.845     -86.887     -14.065
  H     -109.094     -87.355     -14.888
  H     -109.835     -89.831     -11.671
  H     -109.137     -90.126     -13.246
  H     -110.238     -88.789     -13.015

 6  7  8  9  10  11  12  13  14  15  16  26  31  32  33  34  35 0
 6-311+G(2d,p)
 ****
 36  37 0
 6-311+G(2d,p)
 ****
 1  2  3  4  5  17  18  19  20  21  22  23  24  25 0
 3-21G
 ****
 27  28  29  30  38  39  40  41  42  43  44  45 0
 3-21G
 ****


