%nproc=1
%NoSave
%Mem=1900MB
#P OB98/GEN NMR

erre ene a

0 1
  C      171.807    -698.388    -459.046
  O      172.026    -699.478    -458.174
  P      172.326    -699.119    -456.624
  C      174.924    -699.304    -456.861
  O      173.798    -698.473    -456.588
  C      176.171    -698.698    -456.206
  O      176.537    -697.471    -456.862
  C      175.993    -698.362    -454.736
  O      176.166    -699.512    -453.932
  C      177.089    -697.312    -454.537
  O      178.378    -697.940    -454.345
  C      177.033    -696.541    -455.851
  N      176.953    -691.550    -455.007
  C      177.958    -692.470    -454.783
  N      179.130    -691.982    -454.306
  N      177.836    -693.749    -455.002
  C      176.601    -694.106    -455.480
  C      175.535    -693.280    -455.726
  C      175.695    -691.857    -455.522
  O      174.884    -690.981    -455.800
  N      174.445    -693.993    -456.171
  C      174.882    -695.239    -456.232
  N      176.197    -695.357    -455.830
  O      172.506    -700.564    -455.947
  O      171.270    -698.290    -455.945
  H      178.354    -698.435    -453.503
  H      171.682    -700.835    -455.497
  H      177.121    -690.575    -454.826
  H      174.292    -696.078    -456.577
  H      178.027    -696.212    -456.185
  H      176.906    -696.694    -453.652
  H      179.291    -691.025    -454.082
  H      175.006    -697.910    -454.557
  H      179.880    -692.662    -454.119
  H      177.003    -699.418    -456.335
  H      175.074    -699.362    -457.946
  H      174.746    -700.315    -456.484
  P      174.945    -699.939    -452.965
  C      175.857    -698.858    -450.786
  O      174.874    -698.841    -451.796
  O      175.497    -701.249    -452.237
  O      173.664    -700.209    -453.687
  H      174.766    -701.882    -452.102
  H      176.008    -697.839    -450.423
  H      176.820    -699.233    -451.167
  H      175.522    -699.498    -449.967
  H      171.621    -698.754    -460.034
  H      172.673    -697.759    -459.055
  H      170.961    -697.826    -458.709

 3  4  5  6  7  8  9  10  11  12  23  26  30  31 0
 6-311+G(2d,p)
 ****
 33  35  36  37  38 0
 6-311+G(2d,p)
 ****
 1  2  13  14  15  16  17  18  19  20  21  22  24  25 0
 3-21G
 ****
 27  28  29  32  34  39  40  41  42  43  44  45  46  47  48  49 0
 3-21G
 ****


