%nproc=1
%NoSave
%Mem=1900MB
#P OB98/GEN NMR

erre ene a

0 1
  C      285.363     152.035     224.629
  O      284.458     150.946     224.762
  P      284.863     149.763     225.774
  C      284.346     151.037     227.976
  O      285.343     150.493     227.120
  C      284.292     150.270     229.295
  O      283.747     148.952     229.081
  C      285.645     150.052     229.956
  O      286.072     151.187     230.692
  C      285.326     148.900     230.891
  O      284.657     149.394     232.066
  C      284.363     148.057     230.047
  N      283.639     143.688     227.491
  C      282.781     144.503     228.142
  N      283.056     145.645     228.807
  C      284.372     145.896     228.798
  C      285.371     145.138     228.209
  C      284.964     143.986     227.521
  N      285.835     143.169     226.835
  N      286.605     145.717     228.413
  C      286.357     146.811     229.100
  N      285.024     146.972     229.349
  O      286.228     149.208     225.149
  O      283.840     148.694     225.933
  H      285.204     150.121     232.417
  H      286.379     148.287     225.438
  H      281.738     144.206     228.111
  H      287.107     147.517     229.430
  H      283.556     147.625     230.645
  H      286.221     148.370     231.234
  H      286.399     149.736     229.222
  H      283.616     150.807     229.971
  H      283.372     150.965     227.483
  H      285.445     142.477     226.219
  H      286.780     143.503     226.691
  H      284.568     152.093     228.158
  P      287.657     151.386     230.866
  C      287.453     153.012     228.849
  O      288.167     151.949     229.455
  O      288.209     149.884     230.906
  O      288.043     152.170     232.076
  H      289.054     149.849     231.394
  H      288.090     153.466     228.085
  H      287.184     153.775     229.579
  H      286.551     152.624     228.367
  H      284.969     152.742     223.929
  H      286.307     151.673     224.278
  H      285.493     152.508     225.580

 3  4  5  6  7  8  9  10  11  12  22  25  29  30  31  32 0
 6-311+G(2d,p)
 ****
 33  36  37 0
 6-311+G(2d,p)
 ****
 1  2  13  14  15  16  17  18  19  20  21  23  24  26 0
 3-21G
 ****
 27  28  34  35  38  39  40  41  42  43  44  45  46  47  48 0
 3-21G
 ****


