%nproc=1
%NoSave
%Mem=1900MB
#P OB98/GEN NMR

erre ene a

0 1
  C     -891.760    -358.499    -655.034
  O     -892.090    -357.568    -656.045
  H     -891.220    -357.971    -654.239
  H     -891.120    -359.289    -655.430
  H     -892.670    -358.936    -654.605
  P     -892.790    -358.115    -657.381
  C     -894.580    -356.262    -657.635
  O     -894.320    -357.626    -657.335
  C     -895.130    -355.535    -656.401
  O     -894.070    -355.417    -655.408
  C     -895.630    -354.104    -656.703
  O     -896.690    -353.823    -655.778
  C     -894.400    -353.282    -656.378
  O     -894.700    -351.913    -656.255
  C     -893.900    -354.008    -655.121
  N     -892.530    -353.679    -654.793
  C     -892.340    -352.822    -653.700
  O     -893.310    -352.387    -653.088
  N     -891.060    -352.467    -653.360
  C     -890.060    -352.873    -654.084
  N     -888.820    -352.468    -653.694
  C     -890.220    -353.732    -655.282
  C     -891.470    -354.094    -655.574
  O     -892.610    -359.573    -657.661
  O     -892.160    -357.217    -658.544
  H     -895.070    -351.560    -657.096
  H     -891.500    -357.737    -659.046
  H     -889.360    -354.020    -655.860
  H     -891.690    -354.721    -656.430
  H     -894.540    -353.770    -654.255
  H     -893.660    -353.366    -657.177
  H     -895.980    -353.980    -657.729
  H     -895.930    -356.141    -655.956
  H     -888.750    -351.879    -652.883
  H     -895.310    -356.232    -658.446
  H     -887.970    -352.710    -654.196
  H     -893.660    -355.770    -657.971
  P     -898.110    -354.569    -655.821
  C     -898.540    -355.857    -653.633
  O     -898.020    -355.917    -654.966
  O     -898.650    -354.758    -657.198
  O     -899.090    -353.635    -654.963
  H     -900.000    -353.721    -655.316
  H     -898.426    -356.811    -653.162
  H     -899.578    -355.598    -653.666
  H     -898.005    -355.117    -653.075

 6  7  8  9  10  11  12  13  14  15  16  26  30  31  32  33  35 0
 6-311+G(2d,p)
 ****
 37  38 0
 6-311+G(2d,p)
 ****
 1  2  3  4  5  17  18  19  20  21  22  23  24  25 0
 3-21G
 ****
 27  28  29  34  36  39  40  41  42  43  44  45  46 0
 3-21G
 ****


