%nproc=1
%NoSave
%Mem=1900MB
#P OB98/GEN NMR

erre ene a

0 1
  C      378.873    -295.625     -26.208
  O      377.491    -295.905     -26.325
  H      379.412    -296.568     -26.093
  H      379.073    -294.998     -25.337
  H      379.231    -295.128     -27.113
  P      376.461    -294.678     -26.227
  C      375.596    -293.168     -24.323
  O      376.471    -294.233     -24.680
  C      375.033    -293.362     -22.915
  O      374.170    -294.518     -22.863
  C      376.090    -293.620     -21.854
  O      376.945    -292.529     -21.593
  C      375.258    -294.200     -20.718
  O      374.631    -293.190     -19.931
  C      374.192    -295.003     -21.501
  N      374.428    -296.441     -21.447
  C      374.365    -297.021     -20.186
  O      374.149    -296.385     -19.153
  N      374.596    -298.368     -20.136
  C      374.920    -299.163     -21.196
  O      375.135    -300.366     -21.084
  C      375.011    -298.487     -22.501
  C      374.762    -297.175     -22.567
  O      375.088    -294.939     -26.774
  O      377.226    -293.474     -26.953
  H      374.284    -292.521     -20.550
  H      376.605    -292.739     -27.174
  H      374.541    -298.813     -19.232
  H      375.278    -299.084     -23.361
  H      374.820    -296.655     -23.518
  H      373.192    -294.809     -21.089
  H      375.858    -294.813     -20.040
  H      376.740    -294.430     -22.206
  H      374.427    -292.483     -22.668
  H      374.769    -293.159     -25.042
  H      376.132    -292.215     -24.389
  P      378.457    -292.682     -21.117
  C      379.706    -292.058     -18.905
  O      378.509    -292.519     -19.523
  O      379.491    -291.972     -21.929
  O      378.698    -294.270     -21.300
  H      379.635    -294.390     -21.564
  H      379.564    -292.009     -17.846
  H      379.948    -291.085     -19.278
  H      380.505    -292.734     -19.127

 6  7  8  9  10  11  12  13  14  15  16  26  31  32  33  34  35 0
 6-311+G(2d,p)
 ****
 36  37 0
 6-311+G(2d,p)
 ****
 1  2  3  4  5  17  18  19  20  21  22  23  24  25 0
 3-21G
 ****
 27  28  29  30  38  39  40  41  42  43  44  45 0
 3-21G
 ****


