%nproc=1
%NoSave
%Mem=1900MB
#P OB98/GEN NMR

erre ene a

0 1
  C      432.336    -218.432    -165.160
  O      432.508    -217.403    -164.208
  H      431.382    -218.930    -164.964
  H      433.142    -219.163    -165.057
  H      432.325    -218.036    -166.179
  P      433.571    -216.246    -164.511
  C      431.661    -214.779    -165.441
  O      432.961    -215.310    -165.668
  C      431.251    -213.793    -166.537
  O      429.919    -213.296    -166.287
  C      432.162    -212.565    -166.586
  O      433.357    -212.725    -167.327
  C      431.251    -211.528    -167.234
  O      431.301    -211.625    -168.669
  C      429.865    -211.921    -166.715
  N      426.619    -208.301    -165.149
  C      426.784    -208.831    -166.411
  N      426.024    -208.291    -167.393
  N      427.627    -209.795    -166.685
  C      428.380    -210.169    -165.628
  C      428.320    -209.706    -164.332
  C      427.341    -208.678    -164.028
  O      427.161    -208.168    -162.926
  N      429.245    -210.333    -163.531
  C      429.912    -211.112    -164.352
  N      429.407    -211.074    -165.633
  O      434.755    -217.010    -165.275
  O      434.089    -215.520    -163.306
  H      430.983    -212.511    -168.926
  H      435.596    -216.538    -165.145
  H      425.934    -207.582    -164.993
  H      430.747    -211.747    -164.071
  H      429.108    -211.864    -167.511
  H      431.552    -210.508    -166.976
  H      425.450    -207.474    -167.257
  H      432.397    -212.228    -165.570
  H      426.304    -208.464    -168.363
  H      431.223    -214.314    -167.503
  H      431.692    -214.271    -164.477
  H      430.932    -215.588    -165.362
  P      434.549    -211.669    -167.167
  C      435.554    -213.398    -165.503
  O      435.326    -212.042    -165.814
  O      433.776    -210.314    -166.805
  O      435.414    -211.507    -168.370
  H      433.647    -209.775    -167.605
  H      436.080    -213.467    -164.574
  H      436.138    -213.848    -166.278
  H      434.617    -213.908    -165.421

 6  7  8  9  10  11  12  13  14  15  26  29  33  34 0
 6-311+G(2d,p)
 ****
 36  38  39  40  41 0
 6-311+G(2d,p)
 ****
 1  2  3  4  5  16  17  18  19  20  21  22  23  24  25 0
 3-21G
 ****
 27  28  30  31  32  35  37  42  43  44  45  46  47 0
 3-21G
 ****
 48  49 0
 3-21G
 ****


