%nproc=1
%NoSave
%Mem=1900MB
#P OB98/GEN NMR

erre ene a

0 1
  C       29.580     -85.503     -34.647
  O       28.783     -86.139     -35.624
  H       30.360     -86.198     -34.324
  H       28.971     -85.236     -33.780
  H       30.058     -84.608     -35.054
  P       27.689     -85.272     -36.412
  C       25.881     -86.561     -35.103
  O       26.322     -86.107     -36.376
  C       24.922     -87.736     -35.273
  O       24.511     -88.235     -33.983
  C       23.633     -87.384     -36.010
  O       23.864     -87.264     -37.401
  C       22.748     -88.554     -35.605
  O       23.041     -89.715     -36.397
  C       23.175     -88.767     -34.133
  N       22.258     -88.155     -33.173
  C       20.943     -88.610     -33.197
  O       20.538     -89.450     -33.998
  N       20.100     -88.048     -32.276
  C       20.417     -87.040     -31.411
  O       19.607     -86.533     -30.639
  C       21.810     -86.576     -31.453
  C       22.653     -87.146     -32.317
  O       28.094     -84.791     -37.766
  O       27.390     -84.052     -35.419
  H       22.486     -90.438     -36.046
  H       27.877     -83.260     -35.714
  H       19.140     -88.355     -32.287
  H       22.096     -85.775     -30.786
  H       23.684     -86.813     -32.367
  H       23.239     -89.839     -33.908
  H       21.687     -88.343     -35.736
  H       23.204     -86.462     -35.603
  H       25.458     -88.542     -35.791
  H       25.365     -85.738     -34.595
  H       26.752     -86.855     -34.510
  P       23.274     -86.026     -38.224
  C       20.893     -86.797     -37.679
  O       21.797     -86.429     -38.713
  O       24.161     -85.494     -39.299
  O       22.993     -84.917     -37.105
  H       23.667     -84.210     -37.162
  H       19.944     -87.046     -38.107
  H       20.775     -85.978     -37.000
  H       21.280     -87.644     -37.152

 6  7  8  9  10  11  12  13  14  15  16  26  31  32  33  34  35 0
 6-311+G(2d,p)
 ****
 36  37 0
 6-311+G(2d,p)
 ****
 1  2  3  4  5  17  18  19  20  21  22  23  24  25 0
 3-21G
 ****
 27  28  29  30  38  39  40  41  42  43  44  45 0
 3-21G
 ****


