%nproc=1
%NoSave
%Mem=1900MB
#P OB98/GEN NMR

erre ene a

0 1
  C      -42.783    -203.127       7.448
  O      -42.811    -201.725       7.657
  H      -43.215    -203.339       6.466
  H      -43.377    -203.636       8.213
  H      -41.751    -203.487       7.465
  P      -42.249    -201.199       9.067
  C      -40.202    -200.142       7.890
  O      -40.663    -201.085       8.848
  C      -38.844    -200.572       7.331
  O      -38.979    -201.793       6.584
  C      -38.208    -199.560       6.383
  O      -37.515    -198.556       7.118
  C      -37.239    -200.454       5.615
  O      -36.040    -200.657       6.396
  C      -38.016    -201.775       5.494
  N      -37.587    -202.020       0.383
  C      -36.714    -201.637       1.339
  N      -36.913    -201.540       2.670
  C      -38.164    -201.906       2.997
  C      -39.164    -202.324       2.126
  C      -38.837    -202.378       0.762
  N      -39.733    -202.767      -0.218
  N      -40.324    -202.612       2.819
  C      -40.008    -202.440       4.086
  N      -38.724    -201.974       4.245
  O      -42.697    -201.970      10.269
  O      -42.717    -199.666       9.030
  H      -35.589    -199.791       6.447
  H      -42.590    -199.292       8.138
  H      -35.716    -201.360       0.984
  H      -40.659    -202.651       4.925
  H      -37.357    -202.646       5.625
  H      -36.925    -200.014       4.668
  H      -38.936    -199.133       5.686
  H      -38.178    -200.785       8.182
  H      -40.113    -199.145       8.352
  H      -39.475    -202.594      -1.173
  H      -40.695    -202.908       0.058
  H      -40.946    -200.088       7.091
  P      -38.138    -197.090       7.304
  C      -38.376    -196.740       9.845
  O      -39.016    -197.171       8.640
  O      -38.837    -196.556       6.096
  O      -36.890    -196.188       7.752
  H      -37.103    -195.240       7.631
  H      -39.056    -196.839      10.665
  H      -38.083    -195.716       9.747
  H      -37.510    -197.343      10.024

 6  7  8  9  10  11  12  13  14  15  25  28  32  33  34  35 0
 6-311+G(2d,p)
 ****
 36  39  40 0
 6-311+G(2d,p)
 ****
 1  2  3  4  5  16  17  18  19  20  21  22  23  24 0
 3-21G
 ****
 26  27  29  30  31  37  38  41  42  43  44  45  46  47 0
 3-21G
 ****
 48 0
 3-21G
 ****


