%nproc=1
%NoSave
%Mem=1900MB
#P OB98/GEN NMR

erre ene a

0 1
  C     -262.999     570.970      51.401
  O     -263.695     569.979      50.638
  P     -263.262     569.823      49.101
  C     -261.481     568.415      47.838
  O     -261.857     569.055      49.050
  C     -260.218     567.583      48.049
  O     -259.093     568.408      48.436
  C     -260.349     566.544      49.157
  O     -261.129     565.440      48.727
  C     -258.886     566.220      49.430
  O     -258.379     565.314      48.435
  C     -258.215     567.598      49.259
  N     -254.807     568.373      52.997
  C     -254.755     567.636      51.862
  N     -255.706     567.476      50.919
  C     -256.800     568.191      51.226
  C     -257.003     568.991      52.346
  C     -255.943     569.065      53.261
  N     -256.002     569.805      54.420
  N     -258.258     569.562      52.317
  C     -258.816     569.098      51.214
  N     -257.973     568.277      50.519
  O     -262.901     571.319      48.664
  O     -264.333     569.237      48.236
  H     -258.863     564.469      48.533
  H     -263.587     571.663      48.062
  H     -253.827     567.096      51.692
  H     -259.825     569.328      50.885
  H     -257.253     567.529      48.734
  H     -258.719     565.760      50.406
  H     -260.806     566.997      50.050
  H     -259.973     567.084      47.100
  H     -261.314     569.156      47.052
  H     -255.228     569.739      55.063
  H     -256.871     570.253      54.672
  H     -262.315     567.786      47.502
  P     -262.506     565.152      49.502
  C     -264.816     565.927      48.677
  O     -263.482     566.320      48.980
  O     -262.146     565.626      50.982
  O     -263.026     563.760      49.361
  H     -261.685     566.481      50.987
  H     -265.376     566.817      48.374
  H     -265.288     565.491      49.560
  H     -264.812     565.209      47.854
  H     -263.375     570.978      52.403
  H     -263.148     571.932      50.957
  H     -261.954     570.741      51.414

 3  4  5  6  7  8  9  10  11  12  22  25  29  30  31  32 0
 6-311+G(2d,p)
 ****
 33  36  37 0
 6-311+G(2d,p)
 ****
 1  2  13  14  15  16  17  18  19  20  21  23  24  26 0
 3-21G
 ****
 27  28  34  35  38  39  40  41  42  43  44  45  46  47  48 0
 3-21G
 ****


