%nproc=1
%NoSave
%Mem=1900MB
#P OB98/GEN NMR

erre ene a

0 1
  C     -173.192    -831.863     324.557
  O     -173.419    -830.528     324.957
  H     -172.357    -831.879     323.850
  H     -174.080    -832.263     324.056
  H     -172.934    -832.493     325.414
  P     -174.471    -830.245     326.133
  C     -173.346    -828.070     326.952
  O     -174.495    -828.657     326.359
  C     -173.190    -826.611     326.503
  O     -172.834    -826.600     325.085
  C     -174.466    -825.760     326.655
  O     -174.042    -824.406     326.889
  C     -175.078    -825.912     325.275
  O     -176.134    -825.011     325.048
  C     -173.814    -825.768     324.420
  N     -173.954    -826.160     323.022
  C     -174.456    -825.214     322.134
  O     -174.784    -824.067     322.442
  N     -174.578    -825.628     320.835
  C     -174.247    -826.857     320.342
  O     -174.350    -827.161     319.161
  C     -173.733    -827.818     321.333
  C     -173.607    -827.430     322.603
  O     -174.296    -831.055     327.372
  O     -175.891    -830.521     325.440
  H     -176.222    -831.400     325.715
  H     -175.765    -824.109     324.922
  H     -174.936    -824.952     320.170
  H     -173.468    -828.803     320.979
  H     -173.218    -828.112     323.352
  H     -173.444    -824.740     324.466
  H     -175.512    -826.908     325.170
  H     -175.107    -826.091     327.476
  H     -172.347    -826.164     327.042
  H     -172.469    -828.645     326.648
  H     -173.444    -828.115     328.041
  P     -174.574    -823.514     328.116
  C     -172.344    -824.002     329.338
  O     -173.305    -823.014     328.959
  O     -175.622    -824.185     328.945
  O     -175.143    -822.177     327.441
  H     -175.824    -821.787     328.019
  H     -171.555    -823.538     329.891
  H     -171.941    -824.463     328.460
  H     -172.817    -824.745     329.946

 6  7  8  9  10  11  12  13  14  15  16  27  31  32  33  34  35 0
 6-311+G(2d,p)
 ****
 36  37 0
 6-311+G(2d,p)
 ****
 1  2  3  4  5  17  18  19  20  21  22  23  24  25 0
 3-21G
 ****
 26  28  29  30  38  39  40  41  42  43  44  45 0
 3-21G
 ****


