%nproc=1
%NoSave
%Mem=1900MB
#P OB98/GEN NMR

erre ene a

0 1
  C      215.034       9.515      28.475
  O      214.417       8.292      28.127
  H      215.325      10.035      27.558
  H      215.933       9.327      29.070
  H      214.345      10.155      29.034
  P      213.730       7.418      29.281
  C      214.460       5.495      30.842
  O      214.834       6.376      29.791
  C      214.809       4.045      30.484
  O      213.927       3.607      29.403
  C      216.258       3.843      29.995
  O      216.648       2.514      30.368
  C      216.070       3.962      28.490
  O      217.202       3.549      27.769
  C      214.780       3.142      28.333
  N      214.107       3.270      27.046
  C      213.693       2.100      26.414
  O      213.850       0.965      26.868
  N      213.075       2.267      25.202
  C      212.821       3.458      24.584
  O      212.235       3.547      23.512
  C      213.290       4.656      25.297
  C      213.896       4.512      26.480
  O      212.404       6.821      28.940
  O      213.614       8.442      30.510
  H      212.697       8.772      30.576
  H      216.996       3.573      26.809
  H      212.764       1.431      24.731
  H      213.115       5.617      24.829
  H      214.244       5.379      27.032
  H      214.986       2.083      28.528
  H      215.903       5.006      28.215
  H      216.961       4.565      30.420
  H      214.591       3.406      31.348
  H      213.378       5.588      30.997
  H      214.979       5.790      31.760
  P      217.337       2.159      31.776
  C      219.280       3.151      33.174
  O      218.268       3.398      32.204
  O      218.045       0.841      31.789
  O      216.147       2.186      32.849
  H      216.370       1.603      33.599
  H      219.820       4.055      33.364
  H      219.952       2.404      32.806
  H      218.828       2.808      34.081

 6  7  8  9  10  11  12  13  14  15  16  27  31  32  33  34  35 0
 6-311+G(2d,p)
 ****
 36  37 0
 6-311+G(2d,p)
 ****
 1  2  3  4  5  17  18  19  20  21  22  23  24  25 0
 3-21G
 ****
 26  28  29  30  38  39  40  41  42  43  44  45 0
 3-21G
 ****


