%nproc=1
%NoSave
%Mem=1900MB
#P OB98/GEN NMR

erre ene a

0 1
  C     -172.342      62.422    -143.245
  O     -171.939      63.738    -142.934
  P     -171.372      64.722    -144.062
  C     -173.726      65.767    -144.157
  O     -172.642      65.234    -144.909
  C     -173.787      67.291    -144.318
  O     -173.921      67.605    -145.740
  C     -174.984      67.924    -143.578
  O     -174.636      68.997    -142.701
  C     -175.928      68.287    -144.714
  O     -176.874      69.283    -144.380
  C     -174.941      68.618    -145.840
  N     -175.580      68.637    -147.155
  C     -176.246      69.801    -147.520
  O     -176.322      70.807    -146.820
  N     -176.898      69.767    -148.722
  C     -177.045      68.675    -149.522
  O     -177.729      68.689    -150.537
  C     -176.354      67.461    -149.064
  C     -175.642      67.499    -147.934
  O     -170.263      64.173    -144.892
  O     -170.976      66.034    -143.233
  H     -177.392      68.960    -143.618
  H     -171.712      66.451    -142.750
  H     -177.386      70.605    -148.998
  H     -176.461      66.574    -149.674
  H     -175.122      66.619    -147.572
  H     -174.459      69.584    -145.678
  H     -176.493      67.384    -144.980
  H     -175.471      67.193    -142.921
  H     -172.840      67.703    -143.959
  H     -173.577      65.525    -143.103
  H     -174.663      65.296    -144.473
  P     -175.579      69.585    -141.551
  C     -174.827      68.024    -139.613
  O     -175.859      68.420    -140.490
  O     -176.792      70.310    -142.031
  O     -174.612      70.580    -140.749
  H     -175.139      71.301    -140.356
  H     -174.975      66.973    -139.349
  H     -174.878      68.624    -138.700
  H     -173.841      68.139    -140.072
  H     -172.687      61.935    -142.357
  H     -171.512      61.881    -143.649
  H     -173.133      62.452    -143.965

 3  4  5  6  7  8  9  10  11  12  13  23  28  29  30  31  32 0
 6-311+G(2d,p)
 ****
 33  34 0
 6-311+G(2d,p)
 ****
 1  2  14  15  16  17  18  19  20  21  22  24  25  26  27 0
 3-21G
 ****
 35  36  37  38  39  40  41  42  43  44  45 0
 3-21G
 ****


