%nproc=1
%NoSave
%Mem=1900MB
#P OB98/GEN NMR

erre ene a

0 1
  C       -4.058     456.500    -142.169
  O       -4.854     457.690    -142.041
  P       -5.080     458.327    -140.582
  C       -7.580     459.031    -140.897
  O       -6.236     459.435    -140.679
  C       -8.537     460.175    -140.549
  O       -8.359     460.582    -139.172
  C       -8.327     461.440    -141.368
  O       -8.863     461.321    -142.674
  C       -9.045     462.476    -140.509
  O      -10.460     462.463    -140.763
  C       -8.741     461.973    -139.083
  N       -7.718     462.767    -138.412
  C       -8.136     463.967    -137.849
  O       -9.285     464.393    -137.947
  N       -7.173     464.685    -137.194
  C       -5.848     464.361    -137.107
  O       -5.029     465.058    -136.521
  C       -5.452     463.121    -137.792
  C       -6.388     462.397    -138.407
  O       -3.767     459.235    -140.409
  O       -5.199     457.351    -139.460
  H      -10.587     462.845    -141.654
  H       -3.553     459.318    -139.461
  H       -7.461     465.545    -136.753
  H       -4.406     462.841    -137.766
  H       -6.111     461.479    -138.915
  H       -9.656     461.995    -138.475
  H       -8.695     463.494    -140.704
  H       -7.260     461.687    -141.407
  H       -9.566     459.807    -140.665
  H       -7.806     458.170    -140.262
  H       -7.698     458.735    -141.944
  P       -8.241     462.286    -143.799
  C      -10.548     462.738    -144.941
  O       -9.251     462.194    -145.039
  O       -6.956     461.442    -144.244
  O       -7.941     463.659    -143.292
  H       -7.112     460.483    -144.196
  H      -10.565     463.628    -144.305
  H      -11.227     461.987    -144.529
  H      -10.891     463.016    -145.941
  H       -4.009     456.212    -143.198
  H       -4.502     455.711    -141.599
  H       -3.070     456.691    -141.805

 3  4  5  6  7  8  9  10  11  12  13  23  28  29  30  31  32 0
 6-311+G(2d,p)
 ****
 33  34 0
 6-311+G(2d,p)
 ****
 1  2  14  15  16  17  18  19  20  21  22  24  25  26 0
 3-21G
 ****
 27  35  36  37  38  39  40  41  42  43  44  45 0
 3-21G
 ****


