%nproc=1
%NoSave
%Mem=1900MB
#P OB98/GEN NMR

erre ene a

0 1
  C     -616.303     448.804    -427.252
  O     -614.931     448.863    -427.646
  P     -614.256     450.297    -427.861
  C     -614.636     450.198    -430.480
  O     -614.706     450.912    -429.260
  C     -615.239     451.049    -431.608
  O     -614.663     452.377    -431.596
  C     -615.011     450.470    -432.993
  O     -616.005     449.540    -433.360
  C     -615.011     451.713    -433.861
  O     -616.358     452.165    -434.090
  C     -614.260     452.725    -432.953
  N     -612.776     452.745    -433.008
  C     -612.130     453.283    -434.120
  O     -612.711     453.763    -435.086
  N     -610.764     453.278    -434.086
  C     -609.985     452.943    -433.018
  O     -608.754     453.023    -433.022
  C     -610.718     452.529    -431.811
  C     -612.045     452.431    -431.863
  O     -612.701     449.960    -428.079
  O     -614.465     451.254    -426.721
  H     -616.711     452.477    -433.239
  H     -612.167     450.328    -427.346
  H     -610.284     453.593    -434.905
  H     -610.138     452.304    -430.922
  H     -612.602     452.115    -430.984
  H     -614.597     453.745    -433.142
  H     -614.581     451.519    -434.851
  H     -614.011     450.023    -433.051
  H     -616.324     451.151    -431.413
  H     -615.172     449.251    -430.402
  H     -613.590     449.965    -430.704
  P     -615.772     447.975    -433.071
  C     -614.444     447.622    -435.228
  O     -614.399     447.602    -433.814
  O     -616.928     447.071    -433.354
  O     -615.333     447.944    -431.526
  H     -616.118     447.734    -430.953
  H     -613.424     447.497    -435.622
  H     -614.842     448.564    -435.591
  H     -615.057     446.782    -435.601
  H     -616.601     447.781    -427.151
  H     -616.908     449.281    -427.995
  H     -616.427     449.306    -426.315

 3  4  5  6  7  8  9  10  11  12  13  23  28  29  30  31  32 0
 6-311+G(2d,p)
 ****
 33  34 0
 6-311+G(2d,p)
 ****
 1  2  14  15  16  17  18  19  20  21  22  24  25  26  27 0
 3-21G
 ****
 35  36  37  38  39  40  41  42  43  44  45 0
 3-21G
 ****


