%nproc=1
%NoSave
%Mem=1900MB
#P OB98/GEN NMR

erre ene a

0 1
  C       76.338    -171.158      29.475
  O       75.908    -171.881      30.613
  H       77.029    -171.786      28.905
  H       76.866    -170.251      29.781
  H       75.490    -170.901      28.834
  P       74.805    -171.223      31.575
  C       74.827    -169.426      33.416
  O       75.604    -170.345      32.657
  C       75.498    -169.137      34.758
  O       75.296    -170.274      35.639
  C       77.008    -168.885      34.651
  O       77.366    -167.866      35.583
  C       77.616    -170.207      35.083
  O       78.926    -170.049      35.625
  C       76.591    -170.707      36.102
  N       79.085    -174.559      38.223
  C       79.264    -173.196      38.363
  N       80.273    -172.793      39.167
  N       78.519    -172.303      37.763
  C       77.539    -172.847      37.000
  C       77.260    -174.175      36.782
  C       78.101    -175.155      37.440
  O       77.997    -176.372      37.346
  N       76.197    -174.325      35.921
  C       75.839    -173.089      35.619
  N       76.630    -172.155      36.240
  O       73.816    -172.179      32.163
  O       74.096    -170.122      30.657
  H       79.535    -169.899      34.870
  H       73.245    -170.454      30.315
  H       79.693    -175.203      38.703
  H       75.027    -172.815      34.956
  H       76.761    -170.289      37.103
  H       77.677    -170.885      34.223
  H       80.876    -173.424      39.674
  H       77.322    -168.596      33.642
  H       80.409    -171.797      39.303
  H       74.991    -168.282      35.223
  H       73.838    -169.872      33.586
  H       74.704    -168.498      32.847
  P       78.081    -166.536      35.038
  C       80.482    -165.695      34.615
  O       79.668    -166.783      35.039
  O       77.634    -165.257      35.666
  O       77.733    -166.563      33.471
  H       77.685    -165.644      33.141
  H       81.512    -165.982      34.660
  H       80.317    -164.855      35.257
  H       80.229    -165.431      33.610

 6  7  8  9  10  11  12  13  14  15  26  29  33  34 0
 6-311+G(2d,p)
 ****
 36  38  39  40  41 0
 6-311+G(2d,p)
 ****
 1  2  3  4  5  16  17  18  19  20  21  22  23  24  25 0
 3-21G
 ****
 27  28  30  31  32  35  37  42  43  44  45  46  47 0
 3-21G
 ****
 48  49 0
 3-21G
 ****


