%nproc=1
%NoSave
%Mem=1900MB
#P OB98/GEN NMR

erre ene a

0 1
  C     -330.615     900.756     311.981
  O     -329.622     899.765     312.152
  P     -329.722     898.725     313.353
  C     -327.969     897.408     312.006
  O     -328.431     897.755     313.292
  C     -326.715     896.526     312.098
  O     -326.909     895.473     313.066
  C     -326.359     895.808     310.800
  O     -325.809     896.686     309.827
  C     -325.401     894.749     311.333
  O     -324.086     895.294     311.522
  C     -326.043     894.370     312.687
  N     -326.762     893.116     312.630
  C     -325.982     891.973     312.863
  O     -324.783     892.061     313.004
  N     -326.632     890.751     312.911
  C     -327.895     890.676     312.629
  N     -328.502     889.456     312.750
  C     -328.718     891.845     312.228
  C     -328.074     893.017     312.272
  O     -331.030     898.010     313.484
  O     -329.444     899.601     314.646
  H     -330.164     899.429     315.308
  H     -323.484     894.538     311.733
  H     -329.757     891.713     311.940
  H     -328.613     893.944     312.024
  H     -325.266     894.316     313.472
  H     -325.304     893.903     310.639
  H     -327.251     895.319     310.406
  H     -325.867     897.153     312.433
  H     -327.892     888.660     313.058
  H     -327.734     898.307     311.442
  H     -329.493     889.347     312.892
  H     -328.764     896.882     311.454
  P     -325.928     896.244     308.284
  C     -325.836     898.697     307.421
  O     -325.258     897.387     307.415
  O     -327.501     896.403     307.983
  O     -325.468     894.857     308.025
  H     -327.801     895.686     307.376
  H     -325.077     899.409     307.063
  H     -326.154     898.961     308.402
  H     -326.691     898.703     306.711
  H     -330.377     901.356     311.127
  H     -330.654     901.376     312.852
  H     -331.565     900.287     311.834

 3  4  5  6  7  8  9  10  11  12  13  24  27  28  29  30  32 0
 6-311+G(2d,p)
 ****
 34  35 0
 6-311+G(2d,p)
 ****
 1  2  14  15  16  17  18  19  20  21  22  23  25  26 0
 3-21G
 ****
 31  33  36  37  38  39  40  41  42  43  44  45  46 0
 3-21G
 ****


