%nproc=1
%NoSave
%Mem=1900MB
#P OB98/GEN NMR

erre ene a

0 1
  C      131.586     239.166      41.862
  O      132.003     240.475      41.485
  P      132.575     241.454      42.617
  C      134.961     241.800      43.707
  O      134.170     241.429      42.599
  C      136.368     242.185      43.220
  O      137.002     241.059      42.576
  C      136.364     243.331      42.211
  O      136.378     244.598      42.845
  C      137.611     243.043      41.403
  O      138.784     243.459      42.127
  C      137.558     241.499      41.305
  N      136.765     240.898      40.208
  C      137.152     239.675      39.666
  O      138.133     239.034      40.031
  N      136.350     239.182      38.668
  C      135.141     239.681      38.284
  O      134.440     239.164      37.424
  C      134.708     240.889      38.991
  C      135.526     241.439      39.894
  O      132.196     240.717      43.982
  O      132.028     242.847      42.562
  H      138.972     242.772      42.792
  H      131.560     241.252      44.493
  H      136.654     238.335      38.213
  H      133.733     241.295      38.751
  H      135.214     242.336      40.424
  H      138.569     241.082      41.227
  H      137.618     243.601      40.470
  H      135.501     243.242      41.542
  H      136.973     242.462      44.093
  H      135.029     240.983      44.428
  H      134.496     242.644      44.226
  P      135.004     245.272      43.315
  C      133.714     245.414      45.529
  O      134.807     244.829      44.847
  O      133.829     245.053      42.423
  O      135.377     246.827      43.449
  H      135.127     247.316      42.632
  H      133.598     244.915      46.495
  H      132.795     245.289      44.952
  H      133.907     246.476      45.698
  H      131.232     238.642      40.999
  H      130.799     239.236      42.584
  H      132.413     238.637      42.287

 3  4  5  6  7  8  9  10  11  12  13  23  28  29  30  31  32 0
 6-311+G(2d,p)
 ****
 33  34 0
 6-311+G(2d,p)
 ****
 1  2  14  15  16  17  18  19  20  21  22  24  25  26  27 0
 3-21G
 ****
 35  36  37  38  39  40  41  42  43  44  45 0
 3-21G
 ****


