%nproc=1
%NoSave
%Mem=1900MB
#P OB98/GEN NMR

erre ene a

0 1
  C      154.620      35.859      55.468
  O      154.174      37.057      54.824
  P      153.381      36.860      53.441
  C      155.446      37.547      52.033
  O      154.460      36.556      52.291
  C      155.291      38.140      50.628
  O      155.746      37.198      49.611
  C      153.847      38.515      50.271
  O      153.907      39.680      49.437
  C      153.391      37.333      49.433
  O      152.244      37.658      48.647
  C      154.675      37.056      48.650
  N      152.672      34.195      45.003
  C      152.333      35.466      45.425
  N      151.343      36.085      44.741
  N      152.909      36.076      46.430
  C      153.906      35.349      46.991
  C      154.348      34.092      46.654
  C      153.680      33.415      45.565
  O      153.945      32.292      45.146
  N      155.408      33.699      47.445
  C      155.551      34.702      48.295
  N      154.705      35.745      48.030
  O      152.864      38.337      53.104
  O      152.253      35.884      53.529
  H      151.557      38.003      49.257
  H      151.925      38.428      53.349
  H      152.182      33.767      44.236
  H      156.265      34.733      49.103
  H      154.834      37.783      47.844
  H      153.135      36.485      50.080
  H      150.892      35.694      43.926
  H      153.198      38.697      51.134
  H      151.103      37.035      45.004
  H      155.931      39.029      50.559
  H      156.445      37.114      52.129
  H      155.378      38.328      52.799
  P      153.650      41.106      50.122
  C      151.080      40.782      50.104
  O      152.240      41.022      50.876
  O      153.348      42.061      48.871
  O      154.796      41.627      50.930
  H      153.754      42.936      49.020
  H      150.330      40.301      50.735
  H      151.288      40.130      49.249
  H      150.682      41.732      49.742
  H      155.132      36.110      56.373
  H      155.285      35.331      54.817
  H      153.777      35.241      55.695

 3  4  5  6  7  8  9  10  11  12  23  26  30  31 0
 6-311+G(2d,p)
 ****
 33  35  36  37  38 0
 6-311+G(2d,p)
 ****
 1  2  13  14  15  16  17  18  19  20  21  22  24  25 0
 3-21G
 ****
 27  28  29  32  34  39  40  41  42  43  44  45  46  47  48  49 0
 3-21G
 ****


