%nproc=1
%NoSave
%Mem=1900MB
#P OB98/GEN NMR

erre ene a

0 1
  C       -5.149      22.306    -216.985
  O       -3.771      22.713    -217.117
  P       -3.037      23.405    -215.864
  C       -1.239      21.658    -215.142
  O       -1.517      22.907    -215.760
  C        0.238      21.269    -215.302
  O        0.656      21.449    -216.691
  C        1.210      22.090    -214.436
  O        2.300      21.219    -214.087
  C        1.690      23.161    -215.403
  O        2.907      23.774    -215.001
  C        1.797      22.334    -216.693
  N        1.832      23.134    -217.917
  C        3.033      23.749    -218.258
  O        4.049      23.720    -217.575
  N        3.027      24.453    -219.441
  C        1.950      24.633    -220.266
  O        2.009      25.296    -221.295
  C        0.705      23.986    -219.841
  C        0.699      23.281    -218.710
  O       -3.727      22.659    -214.621
  O       -3.228      24.886    -215.745
  H        2.674      24.486    -214.376
  H       -3.980      23.314    -213.943
  H        3.889      24.891    -219.712
  H       -0.170      24.097    -220.471
  H       -0.210      22.784    -218.377
  H        2.685      21.703    -216.646
  H        0.929      23.946    -215.478
  H        0.745      22.497    -213.534
  H        0.337      20.196    -215.081
  H       -1.862      20.878    -215.602
  H       -1.494      21.721    -214.080
  P        2.226      20.429    -212.683
  C        3.044      18.026    -213.344
  O        3.332      19.272    -212.738
  O        0.844      19.629    -212.881
  O        2.229      21.308    -211.478
  H        0.773      19.211    -213.755
  H        2.469      18.161    -214.271
  H        2.475      17.398    -212.653
  H        3.979      17.524    -213.586
  H       -5.481      21.867    -217.903
  H       -5.753      23.160    -216.759
  H       -5.235      21.589    -216.195

 3  4  5  6  7  8  9  10  11  12  13  23  28  29  30  31  32 0
 6-311+G(2d,p)
 ****
 33  34 0
 6-311+G(2d,p)
 ****
 1  2  14  15  16  17  18  19  20  21  22  24  25  26 0
 3-21G
 ****
 27  35  36  37  38  39  40  41  42  43  44  45 0
 3-21G
 ****


