%nproc=1
%NoSave
%Mem=1900MB
#P OB98/GEN NMR

erre ene a

0 1
  C       75.185    -123.235    -287.736
  O       75.654    -122.021    -288.292
  H       76.006    -123.741    -287.219
  H       74.402    -123.007    -287.007
  H       74.771    -123.884    -288.511
  P       76.591    -122.122    -289.591
  C       78.407    -120.623    -288.498
  O       77.514    -120.806    -289.587
  C       78.265    -119.213    -287.922
  O       76.908    -119.053    -287.414
  C       79.239    -118.898    -286.773
  O       79.674    -117.540    -286.908
  C       78.365    -119.014    -285.535
  O       78.851    -118.245    -284.442
  C       77.018    -118.537    -286.074
  N       74.426    -117.571    -281.804
  C       75.261    -116.810    -282.545
  N       75.871    -117.128    -283.705
  C       75.489    -118.350    -284.125
  C       74.644    -119.240    -283.481
  C       74.112    -118.812    -282.253
  N       73.315    -119.606    -281.455
  N       74.548    -120.417    -284.198
  C       75.340    -120.252    -285.239
  N       75.932    -119.020    -285.238
  O       75.552    -121.851    -290.784
  O       77.314    -123.415    -289.765
  H       78.968    -117.320    -284.731
  H       75.141    -122.691    -291.055
  H       75.474    -115.821    -282.152
  H       75.540    -120.992    -285.998
  H       76.947    -117.444    -286.117
  H       78.315    -120.066    -285.223
  H       80.108    -119.564    -286.736
  H       78.385    -118.491    -288.741
  H       79.435    -120.761    -288.849
  H       73.070    -119.253    -280.540
  H       73.162    -120.568    -281.720
  H       78.194    -121.372    -287.727
  P       81.125    -117.170    -286.331
  C       81.244    -114.594    -285.936
  O       81.501    -115.690    -286.814
  O       82.108    -118.100    -287.186
  O       81.272    -117.414    -284.862
  H       82.877    -118.362    -286.648
  H       81.550    -113.682    -286.405
  H       81.792    -114.729    -285.027
  H       80.197    -114.549    -285.718

 6  7  8  9  10  11  12  13  14  15  25  28  32  33  34  35 0
 6-311+G(2d,p)
 ****
 36  39  40 0
 6-311+G(2d,p)
 ****
 1  2  3  4  5  16  17  18  19  20  21  22  23  24 0
 3-21G
 ****
 26  27  29  30  31  37  38  41  42  43  44  45  46  47 0
 3-21G
 ****
 48 0
 3-21G
 ****


