%nproc=1
%NoSave
%Mem=1900MB
#P OB98/GEN NMR

erre ene a

0 1
  C      195.679     129.957     -45.109
  O      194.878     128.850     -45.470
  H      195.387     130.290     -44.109
  H      195.522     130.781     -45.811
  H      196.738     129.682     -45.088
  P      195.224     128.052     -46.815
  C      195.253     128.669     -49.324
  O      194.728     128.965     -48.036
  C      194.392     129.312     -50.420
  O      193.097     128.632     -50.451
  C      194.111     130.813     -50.209
  O      193.964     131.402     -51.508
  C      192.781     130.755     -49.474
  O      192.153     132.009     -49.389
  C      192.088     129.657     -50.297
  N      190.876     129.101     -49.708
  C      189.869     128.682     -50.574
  O      189.934     128.742     -51.805
  N      188.743     128.174     -49.977
  C      188.537     128.035     -48.634
  O      187.521     127.545     -48.158
  C      189.633     128.504     -47.771
  C      190.738     129.001     -48.336
  O      194.772     126.631     -46.862
  O      196.821     128.163     -46.918
  H      197.228     127.324     -46.626
  H      191.386     131.939     -48.780
  H      188.007     127.861     -50.589
  H      189.499     128.418     -46.699
  H      191.566     129.346     -47.724
  H      191.860     130.034     -51.302
  H      192.937     130.427     -48.442
  H      194.907     131.327     -49.662
  H      194.866     129.131     -51.391
  H      195.258     127.580     -49.448
  H      196.280     129.043     -49.387
  P      195.145     132.189     -52.261
  C      196.541     134.294     -51.676
  O      195.273     133.651     -51.603
  O      195.008     132.211     -53.751
  O      196.497     131.450     -51.816
  H      197.176     131.569     -52.507
  H      196.483     135.252     -51.203
  H      196.819     134.419     -52.702
  H      197.274     133.694     -51.179

 6  7  8  9  10  11  12  13  14  15  16  27  31  32  33  34  35 0
 6-311+G(2d,p)
 ****
 36  37 0
 6-311+G(2d,p)
 ****
 1  2  3  4  5  17  18  19  20  21  22  23  24  25 0
 3-21G
 ****
 26  28  29  30  38  39  40  41  42  43  44  45 0
 3-21G
 ****


