%nproc=1
%NoSave
%Mem=1900MB
#P OB98/GEN NMR

erre ene a

0 1
  C      311.382    -294.744     220.256
  O      311.748    -295.575     219.177
  H      311.274    -295.358     221.151
  H      310.422    -294.265     220.040
  H      312.137    -293.977     220.445
  P      312.406    -294.910     217.880
  C      313.290    -297.295     217.435
  O      312.801    -296.087     216.861
  C      313.358    -298.420     216.403
  O      314.089    -297.974     215.242
  C      314.085    -299.659     216.935
  O      313.259    -300.570     217.640
  C      314.620    -300.287     215.650
  O      313.657    -301.179     215.065
  C      314.854    -299.076     214.737
  N      319.185    -299.294     212.027
  C      318.002    -299.983     211.828
  N      317.993    -300.861     210.801
  N      316.943    -299.827     212.580
  C      317.138    -298.990     213.623
  C      318.268    -298.271     213.935
  C      319.409    -298.390     213.054
  O      320.473    -297.791     213.177
  N      318.109    -297.555     215.099
  C      316.916    -297.914     215.531
  N      316.256    -298.720     214.630
  O      313.839    -294.413     218.404
  O      311.639    -293.772     217.279
  H      314.125    -301.744     214.418
  H      314.104    -293.613     217.913
  H      319.954    -299.432     211.397
  H      316.465    -297.586     216.459
  H      314.497    -299.271     213.717
  H      315.518    -300.877     215.849
  H      318.803    -301.081     210.246
  H      314.940    -299.369     217.554
  H      317.215    -301.520     210.739
  H      312.341    -298.667     216.070
  H      312.596    -297.561     218.236
  H      314.270    -297.130     217.889
  P      313.421    -300.776     219.216
  C      310.867    -300.621     219.804
  O      312.058    -301.376     219.789
  O      313.431    -299.278     219.777
  O      314.631    -301.541     219.645
  H      314.344    -298.976     219.940
  H      310.078    -301.208     220.227
  H      310.608    -300.343     218.804
  H      311.011    -299.740     220.393

 6  7  8  9  10  11  12  13  14  15  26  29  33  34 0
 6-311+G(2d,p)
 ****
 36  38  39  40  41 0
 6-311+G(2d,p)
 ****
 1  2  3  4  5  16  17  18  19  20  21  22  23  24  25 0
 3-21G
 ****
 27  28  30  31  32  35  37  42  43  44  45  46  47 0
 3-21G
 ****
 48  49 0
 3-21G
 ****


