%nproc=1
%NoSave
%Mem=1900MB
#P OB98/GEN NMR

erre ene a

0 1
  C       11.931     366.739     424.266
  O       12.561     366.986     425.509
  P       13.840     367.952     425.613
  C       12.936     368.581     427.943
  O       14.071     368.162     427.193
  C       13.280     368.620     429.428
  O       14.401     369.511     429.619
  C       12.179     369.143     430.358
  O       11.215     368.172     430.743
  C       13.012     369.540     431.574
  O       13.332     368.369     432.343
  C       14.267     370.122     430.935
  N       15.127     374.607     433.230
  C       15.317     373.338     433.642
  N       15.058     372.196     432.977
  C       14.559     372.470     431.747
  C       14.316     373.714     431.193
  C       14.623     374.826     431.995
  N       14.434     376.128     431.576
  N       13.793     373.581     429.916
  C       13.747     372.291     429.704
  N       14.201     371.564     430.784
  O       13.749     369.194     424.801
  O       15.074     367.021     425.195
  H       13.937     368.656     433.056
  H       15.842     367.580     424.966
  H       15.752     373.209     434.630
  H       13.375     371.821     428.798
  H       15.173     369.878     431.496
  H       12.470     370.234     432.241
  H       11.702     370.035     429.930
  H       13.588     367.610     429.727
  H       12.129     367.856     427.769
  H       14.805     376.863     432.167
  H       14.219     376.276     430.595
  H       12.603     369.559     427.583
  P        9.680     368.663     430.844
  C        9.086     366.122     431.019
  O        8.876     367.436     431.485
  O        9.118     369.207     429.578
  O        9.740     369.727     432.040
  H        9.939     369.369     432.921
  H        8.569     365.408     431.692
  H       10.142     365.867     431.005
  H        8.657     366.009     430.002
  H       11.105     366.074     424.411
  H       12.633     366.294     423.592
  H       11.579     367.662     423.855

 3  4  5  6  7  8  9  10  11  12  22  25  29  30  31  32 0
 6-311+G(2d,p)
 ****
 33  36  37 0
 6-311+G(2d,p)
 ****
 1  2  13  14  15  16  17  18  19  20  21  23  24  26 0
 3-21G
 ****
 27  28  34  35  38  39  40  41  42  43  44  45  46  47  48 0
 3-21G
 ****


