%nproc=1
%NoSave
%Mem=1900MB
#P OB98/GEN NMR

erre ene a

0 1
  C     -212.492      67.178     241.603
  O     -213.416      67.142     242.699
  P     -213.874      65.780     243.405
  C     -212.862      65.953     245.773
  O     -214.041      66.032     244.980
  C     -212.912      66.925     246.959
  O     -212.572      68.258     246.538
  C     -214.276      67.046     247.628
  O     -214.545      65.917     248.443
  C     -214.115      68.356     248.386
  O     -213.428      68.157     249.633
  C     -213.245      69.183     247.413
  N     -214.025      70.158     246.659
  C     -214.162      71.425     247.235
  O     -213.688      71.665     248.349
  N     -214.853      72.393     246.541
  C     -215.423      72.096     245.414
  N     -216.086      73.089     244.770
  C     -215.381      70.744     244.820
  C     -214.667      69.838     245.489
  O     -213.020      64.597     243.069
  O     -215.380      65.541     242.907
  H     -212.578      67.725     249.412
  H     -215.551      64.583     242.867
  H     -215.889      70.530     243.893
  H     -214.578      68.822     245.116
  H     -212.457      69.714     247.961
  H     -215.073      68.831     248.619
  H     -215.055      67.158     246.865
  H     -212.157      66.600     247.689
  H     -216.090      74.005     245.203
  H     -212.006      66.206     245.134
  H     -216.562      72.966     243.891
  H     -212.742      64.924     246.130
  P     -215.985      65.761     249.127
  C     -216.369      63.355     248.320
  O     -216.206      64.206     249.438
  O     -217.116      66.433     248.421
  O     -215.776      66.384     250.591
  H     -216.615      66.784     250.887
  H     -216.111      62.336     248.613
  H     -215.727      63.664     247.493
  H     -217.414      63.379     247.999
  H     -212.339      68.192     241.299
  H     -212.889      66.616     240.783
  H     -211.559      66.752     241.909

 3  4  5  6  7  8  9  10  11  12  13  23  27  28  29  30  32 0
 6-311+G(2d,p)
 ****
 34  35 0
 6-311+G(2d,p)
 ****
 1  2  14  15  16  17  18  19  20  21  22  24  25  26 0
 3-21G
 ****
 31  33  36  37  38  39  40  41  42  43  44  45  46 0
 3-21G
 ****


