%nproc=1
%NoSave
%Mem=1900MB
#P OB98/GEN NMR

erre ene a

0 1
  C       95.310     187.466    -222.832
  O       95.847     187.172    -221.559
  P       97.291     187.658    -221.081
  C       97.200     187.333    -218.507
  O       97.684     186.844    -219.753
  C       97.172     186.257    -217.411
  O       96.036     185.394    -217.613
  C       98.415     185.368    -217.514
  O       99.635     185.775    -216.926
  C       97.940     183.977    -217.111
  O       98.240     183.670    -215.748
  C       96.427     184.042    -217.323
  N       96.392     179.361    -219.269
  C       96.759     179.771    -218.002
  N       97.370     178.845    -217.233
  N       96.566     180.987    -217.552
  C       96.034     181.824    -218.474
  C       95.615     181.528    -219.749
  C       95.796     180.176    -220.221
  O       95.562     179.788    -221.362
  N       95.192     182.645    -220.421
  C       95.389     183.629    -219.566
  N       95.937     183.185    -218.385
  O       97.555     189.129    -221.124
  O       98.241     186.968    -222.193
  H       97.995     184.442    -215.206
  H       98.990     187.571    -222.353
  H       96.638     178.432    -219.589
  H       95.190     184.674    -219.763
  H       95.894     183.753    -216.409
  H       98.434     183.208    -217.715
  H       97.664     177.951    -217.599
  H       98.654     185.281    -218.582
  H       97.802     179.156    -216.372
  H       97.033     186.704    -216.422
  H       96.198     187.735    -218.678
  H       97.828     188.165    -218.174
  P      101.106     185.462    -217.471
  C      102.397     187.615    -216.988
  O      102.156     186.279    -216.585
  O      101.170     186.214    -218.884
  O      101.418     184.011    -217.642
  H      101.863     185.809    -219.441
  H      103.322     187.967    -216.525
  H      101.572     188.251    -216.654
  H      102.492     187.685    -218.075
  H       94.335     187.034    -222.916
  H       95.946     187.060    -223.590
  H       95.242     188.527    -222.954

 3  4  5  6  7  8  9  10  11  12  23  26  30  31 0
 6-311+G(2d,p)
 ****
 33  35  36  37  38 0
 6-311+G(2d,p)
 ****
 1  2  13  14  15  16  17  18  19  20  21  22  24  25 0
 3-21G
 ****
 27  28  29  32  34  39  40  41  42  43  44  45  46  47  48  49 0
 3-21G
 ****


