%nproc=1
%NoSave
%Mem=1900MB
#P OB98/GEN NMR

erre ene a

0 1
  C      138.195      82.627      84.099
  O      139.537      82.183      84.079
  H      138.060      83.371      83.309
  H      137.972      83.093      85.061
  H      137.510      81.794      83.920
  P      139.897      80.939      85.025
  C      141.312      81.445      87.141
  O      140.041      81.524      86.513
  C      142.197      82.603      86.688
  O      141.470      83.850      86.759
  C      143.455      82.796      87.529
  O      144.498      81.918      87.129
  C      143.794      84.239      87.196
  O      144.406      84.307      85.892
  C      142.404      84.889      87.164
  N      142.986      88.713      90.441
  C      143.612      88.476      89.232
  N      144.533      89.384      88.844
  N      143.364      87.441      88.472
  C      142.429      86.611      88.991
  C      141.737      86.738      90.174
  C      142.015      87.891      91.001
  O      141.473      88.160      92.068
  N      140.861      85.702      90.357
  C      141.035      84.937      89.297
  N      141.981      85.441      88.440
  O      141.409      80.590      84.619
  O      139.010      79.749      84.884
  H      145.282      83.886      85.972
  H      141.531      79.623      84.665
  H      143.222      89.519      90.992
  H      140.503      84.017      89.103
  H      142.338      85.697      86.427
  H      144.496      84.681      87.904
  H      144.807      90.176      89.405
  H      143.240      82.709      88.601
  H      144.982      89.251      87.947
  H      142.459      82.435      85.635
  H      141.789      80.498      86.870
  H      141.175      81.478      88.227
  P      145.558      81.463      88.247
  C      147.727      82.719      87.564
  O      146.576      82.694      88.401
  O      146.429      80.356      87.489
  O      144.960      80.942      89.508
  H      146.848      79.759      88.138
  H      148.306      83.593      87.780
  H      147.422      82.738      86.539
  H      148.318      81.846      87.744

 6  7  8  9  10  11  12  13  14  15  26  29  33  34 0
 6-311+G(2d,p)
 ****
 36  38  39  40  41 0
 6-311+G(2d,p)
 ****
 1  2  3  4  5  16  17  18  19  20  21  22  23  24  25 0
 3-21G
 ****
 27  28  30  31  32  35  37  42  43  44  45  46  47 0
 3-21G
 ****
 48  49 0
 3-21G
 ****


