%nproc=1
%NoSave
%Mem=1900MB
#P OB98/GEN NMR

erre ene a

0 1
  C     -124.369    -102.496     368.401
  O     -124.564    -101.515     369.392
  H     -124.758    -103.451     368.765
  H     -123.302    -102.614     368.197
  H     -124.898    -102.235     367.479
  P     -124.344     -99.971     369.020
  C     -122.266     -98.491     368.623
  O     -122.772     -99.695     369.187
  C     -120.906     -98.749     367.971
  O     -119.948     -99.075     369.026
  C     -120.914     -99.924     366.971
  O     -119.990     -99.630     365.913
  C     -120.378    -101.055     367.829
  O     -119.877    -102.113     367.053
  C     -119.332    -100.321     368.663
  N     -118.930    -101.109     369.824
  C     -117.822    -101.939     369.673
  O     -117.195    -102.049     368.620
  N     -117.501    -102.716     370.752
  C     -118.222    -102.816     371.904
  O     -117.929    -103.581     372.812
  C     -119.411    -101.949     371.993
  C     -119.702    -101.142     370.969
  O     -125.228     -98.993     369.724
  O     -124.527     -99.921     367.429
  H     -119.476    -102.791     367.630
  H     -124.739     -99.013     367.141
  H     -116.696    -103.315     370.663
  H     -120.019    -102.016     372.890
  H     -120.580    -100.506     370.990
  H     -118.443    -100.090     368.059
  H     -121.178    -101.455     368.463
  H     -121.901    -100.130     366.556
  H     -120.553     -97.830     367.492
  H     -122.162     -97.753     369.423
  H     -122.976     -98.114     367.875
  P     -120.314     -99.994     364.383
  C     -120.898    -102.014     362.908
  O     -120.533    -101.579     364.212
  O     -119.349     -99.411     363.401
  O     -121.776     -99.390     364.135
  H     -121.785     -98.909     363.286
  H     -121.017    -103.077     362.907
  H     -120.132    -101.741     362.213
  H     -121.820    -101.551     362.623

 6  7  8  9  10  11  12  13  14  15  16  26  31  32  33  34  35 0
 6-311+G(2d,p)
 ****
 36  37 0
 6-311+G(2d,p)
 ****
 1  2  3  4  5  17  18  19  20  21  22  23  24  25 0
 3-21G
 ****
 27  28  29  30  38  39  40  41  42  43  44  45 0
 3-21G
 ****


