%nproc=1
%NoSave
%Mem=1900MB
#P OB98/GEN NMR

erre ene a

0 1
  C      453.442      77.532     121.292
  O      453.007      76.199     121.466
  H      452.657      78.092     120.775
  H      454.347      77.550     120.681
  H      453.635      78.006     122.258
  P      453.925      75.259     122.387
  C      453.363      72.848     121.593
  O      453.132      73.870     122.552
  C      452.365      71.710     121.782
  O      452.489      71.148     123.111
  C      450.905      72.124     121.629
  O      450.508      72.165     120.263
  C      450.216      70.988     122.368
  O      450.182      69.812     121.534
  C      451.153      70.770     123.563
  N      447.625      71.606     127.104
  C      447.618      70.731     126.034
  N      446.510      69.980     125.877
  N      448.607      70.609     125.183
  C      449.649      71.434     125.460
  C      449.774      72.339     126.486
  C      448.677      72.462     127.420
  O      448.638      73.200     128.400
  N      450.982      72.985     126.444
  C      451.579      72.489     125.376
  N      450.810      71.549     124.740
  O      453.801      75.926     123.840
  O      455.349      75.139     121.963
  H      449.543      69.200     121.940
  H      454.660      75.837     124.300
  H      446.830      71.671     127.718
  H      452.561      72.776     125.027
  H      451.200      69.718     123.869
  H      449.178      71.223     122.631
  H      445.692      70.062     126.462
  H      450.699      73.073     122.143
  H      446.492      69.305     125.122
  H      452.620      70.914     121.067
  H      454.380      72.461     121.716
  H      453.262      73.276     120.589
  P      449.720      73.470     119.759
  C      448.381      71.926     118.155
  O      449.165      73.105     118.299
  O      450.906      74.508     119.457
  O      448.727      74.021     120.724
  H      450.571      75.420     119.495
  H      448.086      71.817     117.132
  H      447.510      71.999     118.772
  H      448.958      71.075     118.452

 6  7  8  9  10  11  12  13  14  15  26  29  33  34 0
 6-311+G(2d,p)
 ****
 36  38  39  40  41 0
 6-311+G(2d,p)
 ****
 1  2  3  4  5  16  17  18  19  20  21  22  23  24  25 0
 3-21G
 ****
 27  28  30  31  32  35  37  42  43  44  45  46  47 0
 3-21G
 ****
 48  49 0
 3-21G
 ****


