%nproc=1
%NoSave
%Mem=1900MB
#P OB98/GEN NMR

erre ene a

0 1
  C     1181.654     574.805    1689.809
  O     1181.020     573.807    1690.612
  P     1180.776     572.361    1689.941
  C     1178.937     573.242    1688.302
  O     1179.272     572.362    1689.393
  C     1177.546     572.901    1687.787
  O     1177.487     571.514    1687.384
  C     1176.411     573.072    1688.803
  O     1175.996     574.430    1688.910
  C     1175.323     572.241    1688.167
  O     1174.671     572.966    1687.112
  C     1176.101     571.054    1687.585
  N     1173.405     567.084    1689.176
  C     1173.155     567.984    1688.138
  N     1172.009     567.798    1687.442
  N     1173.964     568.924    1687.777
  C     1175.109     568.978    1688.559
  C     1175.463     568.167    1689.608
  C     1174.533     567.130    1689.985
  O     1174.672     566.352    1690.945
  N     1176.663     568.518    1690.129
  C     1177.062     569.546    1689.411
  N     1176.119     569.895    1688.448
  O     1180.718     571.367    1691.207
  O     1181.829     571.954    1688.970
  H     1174.390     573.822    1687.482
  H     1180.850     570.471    1690.928
  H     1172.733     566.375    1689.417
  H     1177.969     570.090    1689.524
  H     1175.731     570.744    1686.604
  H     1174.531     571.945    1688.880
  H     1171.317     567.112    1687.716
  H     1176.682     572.637    1689.773
  H     1171.753     568.452    1686.731
  H     1177.350     573.535    1686.903
  H     1179.674     573.126    1687.521
  H     1178.978     574.271    1688.675
  P     1176.318     575.175    1690.305
  C     1174.202     574.220    1691.495
  O     1174.902     575.357    1691.023
  O     1176.714     576.671    1689.830
  O     1177.406     574.533    1691.120
  H     1177.308     577.088    1690.495
  H     1173.427     574.540    1692.178
  H     1174.890     573.543    1692.047
  H     1173.758     573.679    1690.646
  H     1181.753     575.708    1690.374
  H     1181.061     574.992    1688.938
  H     1182.623     574.462    1689.513

 3  4  5  6  7  8  9  10  11  12  23  26  30  31 0
 6-311+G(2d,p)
 ****
 33  35  36  37  38 0
 6-311+G(2d,p)
 ****
 1  2  13  14  15  16  17  18  19  20  21  22  24  25 0
 3-21G
 ****
 27  28  29  32  34  39  40  41  42  43  44  45  46  47  48  49 0
 3-21G
 ****


