%nproc=1
%NoSave
%Mem=1900MB
#P OB98/GEN NMR

erre ene a

0 1
  C      170.456     275.161      26.573
  O      170.410     273.980      25.762
  P      171.519     272.825      25.887
  C      173.025     273.384      23.883
  O      172.930     273.332      25.302
  C      174.382     272.904      23.347
  O      175.435     273.855      23.666
  C      174.846     271.543      23.893
  O      175.615     270.943      22.846
  C      175.743     271.948      25.048
  O      176.629     270.921      25.466
  C      176.428     273.170      24.453
  N      180.542     274.238      27.313
  C      180.373     273.420      26.255
  N      179.260     273.212      25.524
  C      178.256     273.998      25.948
  C      178.283     274.892      27.007
  C      179.495     274.996      27.716
  N      179.661     275.794      28.824
  N      177.049     275.500      27.168
  C      176.293     274.970      26.228
  N      176.976     274.057      25.462
  O      171.083     271.499      25.353
  O      171.793     272.712      27.460
  H      176.101     270.129      25.684
  H      171.802     271.770      27.717
  H      181.246     272.839      25.965
  H      175.245     275.187      26.073
  H      177.245     272.882      23.782
  H      175.115     272.215      25.914
  H      174.023     270.892      24.198
  H      174.313     272.866      22.255
  H      172.858     274.420      23.560
  H      180.533     275.729      29.321
  H      178.858     276.262      29.215
  H      172.225     272.768      23.456
  P      174.954     269.958      21.772
  C      175.150     267.989      23.396
  O      174.273     268.763      22.599
  O      175.870     269.516      20.676
  O      173.701     270.771      21.195
  H      173.425     270.386      20.342
  H      175.715     267.300      22.760
  H      174.560     267.407      24.115
  H      175.845     268.625      23.946
  H      169.628     275.794      26.329
  H      171.371     275.684      26.389
  H      170.403     274.887      27.606

 3  4  5  6  7  8  9  10  11  12  22  25  29  30  31  32 0
 6-311+G(2d,p)
 ****
 33  36  37 0
 6-311+G(2d,p)
 ****
 1  2  13  14  15  16  17  18  19  20  21  23  24  26 0
 3-21G
 ****
 27  28  34  35  38  39  40  41  42  43  44  45  46  47  48 0
 3-21G
 ****


