%nproc=1
%NoSave
%Mem=1900MB
#P OB98/GEN NMR

erre ene a

0 1
  C     1900.992    -218.304     515.907
  O     1900.051    -219.298     515.556
  P     1900.307    -220.780     516.131
  C     1902.470    -222.220     516.472
  O     1901.839    -221.102     515.865
  C     1903.472    -222.850     515.528
  O     1904.295    -221.826     514.881
  C     1904.468    -223.810     516.173
  O     1903.895    -225.044     516.496
  C     1905.594    -223.847     515.137
  O     1905.204    -224.752     514.074
  C     1905.557    -222.398     514.595
  N     1906.651    -221.579     515.185
  C     1907.939    -222.010     514.922
  O     1908.225    -223.005     514.271
  N     1908.946    -221.234     515.438
  C     1908.762    -220.133     516.282
  O     1909.698    -219.518     516.753
  C     1907.377    -219.764     516.542
  C     1906.385    -220.477     515.980
  O     1899.506    -221.652     515.039
  O     1899.803    -220.974     517.522
  H     1899.482    -221.198     514.149
  H     1906.000    -224.857     513.525
  H     1909.888    -221.499     515.250
  H     1907.196    -218.923     517.173
  H     1905.355    -220.235     516.173
  H     1905.670    -222.401     513.507
  H     1906.542    -224.177     515.566
  H     1904.850    -223.331     517.109
  H     1902.901    -223.392     514.740
  H     1901.694    -222.933     516.781
  H     1902.983    -221.865     517.398
  P     1904.673    -225.968     517.562
  C     1906.988    -227.233     517.532
  O     1906.070    -226.359     516.883
  O     1903.829    -227.319     517.526
  O     1904.801    -225.352     518.916
  H     1903.570    -227.578     516.597
  H     1907.664    -227.628     516.800
  H     1906.460    -228.059     518.041
  H     1907.562    -226.663     518.295
  H     1900.708    -217.372     515.464
  H     1901.960    -218.588     515.551
  H     1901.020    -218.199     516.971

 3  4  5  6  7  8  9  10  11  12  13  24  28  29  30  31  32 0
 6-311+G(2d,p)
 ****
 33  34 0
 6-311+G(2d,p)
 ****
 1  2  14  15  16  17  18  19  20  21  22  23  25  26  27 0
 3-21G
 ****
 35  36  37  38  39  40  41  42  43  44  45 0
 3-21G
 ****


