%nproc=1
%NoSave
%Mem=1900MB
#P OB98/GEN NMR

erre ene a

0 1
  C     -424.621    -231.137     -55.685
  O     -425.018    -231.701     -56.918
  H     -425.516    -230.838     -55.130
  H     -424.001    -230.251     -55.852
  H     -424.069    -231.875     -55.096
  P     -423.850    -232.112     -57.936
  C     -425.238    -234.069     -58.936
  O     -424.552    -232.848     -59.177
  C     -426.096    -234.420     -60.151
  O     -427.248    -233.543     -60.205
  C     -425.387    -234.237     -61.485
  O     -424.512    -235.312     -61.792
  C     -426.571    -234.166     -62.432
  O     -427.024    -235.472     -62.814
  C     -427.631    -233.433     -61.592
  N     -427.786    -232.041     -62.010
  C     -428.689    -231.820     -63.047
  O     -429.331    -232.720     -63.589
  N     -428.806    -230.521     -63.467
  C     -428.088    -229.461     -63.001
  O     -428.202    -228.332     -63.464
  C     -427.138    -229.759     -61.917
  C     -427.026    -231.016     -61.482
  O     -423.096    -233.296     -57.169
  O     -422.921    -231.005     -58.310
  H     -422.241    -232.977     -56.829
  H     -427.821    -235.331     -63.362
  H     -429.456    -230.339     -64.215
  H     -426.546    -228.940     -61.525
  H     -426.324    -231.265     -60.692
  H     -428.605    -233.928     -61.690
  H     -426.307    -233.634     -63.345
  H     -424.856    -233.279     -61.504
  H     -426.453    -235.449     -60.039
  H     -425.890    -233.960     -58.064
  H     -424.508    -234.855     -58.732
  P     -423.368    -235.053     -62.886
  C     -421.384    -236.102     -61.507
  O     -422.257    -236.181     -62.628
  O     -422.722    -233.704     -62.325
  O     -423.898    -234.973     -64.279
  H     -422.833    -233.621     -61.363
  H     -420.721    -236.942     -61.511
  H     -421.960    -236.107     -60.605
  H     -420.815    -235.198     -61.561

 6  7  8  9  10  11  12  13  14  15  16  27  31  32  33  34  35 0
 6-311+G(2d,p)
 ****
 36  37 0
 6-311+G(2d,p)
 ****
 1  2  3  4  5  17  18  19  20  21  22  23  24  25 0
 3-21G
 ****
 26  28  29  30  38  39  40  41  42  43  44  45 0
 3-21G
 ****


