%nproc=1
%NoSave
%Mem=1900MB
#P OB98/GEN NMR

erre ene a

0 1
  C     -109.134     -58.033     121.745
  O     -109.457     -59.339     122.231
  P     -110.877     -59.525     122.959
  C     -112.189     -59.578     120.697
  O     -111.828     -60.255     121.887
  C     -112.970     -60.504     119.756
  O     -112.170     -61.687     119.453
  C     -114.317     -60.981     120.314
  O     -115.229     -61.035     119.208
  C     -114.005     -62.383     120.809
  O     -115.173     -63.186     120.905
  C     -112.992     -62.835     119.751
  N     -112.186     -63.972     120.189
  C     -112.638     -65.237     119.835
  O     -113.704     -65.429     119.254
  N     -111.845     -66.285     120.218
  C     -110.708     -66.195     120.973
  O     -110.033     -67.167     121.287
  C     -110.341     -64.839     121.414
  C     -111.087     -63.808     121.010
  O     -111.409     -58.021     123.004
  O     -110.767     -60.203     124.285
  H     -111.176     -57.502     122.215
  H     -115.787     -62.780     121.551
  H     -112.137     -67.210     119.945
  H     -109.480     -64.734     122.061
  H     -110.858     -62.802     121.332
  H     -113.508     -63.114     118.824
  H     -113.535     -62.333     121.797
  H     -114.714     -60.322     121.091
  H     -113.129     -59.970     118.810
  H     -111.288     -59.230     120.179
  H     -112.775     -58.685     120.951
  P     -116.556     -60.124     119.271
  C     -115.578     -57.971     118.141
  O     -116.460     -59.070     118.069
  O     -116.217     -59.227     120.561
  O     -117.837     -60.877     119.412
  H     -115.319     -58.861     120.544
  H     -115.491     -57.524     117.149
  H     -114.584     -58.286     118.469
  H     -115.972     -57.223     118.834
  H     -108.167     -58.052     121.286
  H     -109.128     -57.340     122.560
  H     -109.865     -57.730     121.025

 3  4  5  6  7  8  9  10  11  12  13  24  28  29  30  31  32 0
 6-311+G(2d,p)
 ****
 33  34 0
 6-311+G(2d,p)
 ****
 1  2  14  15  16  17  18  19  20  21  22  23  25  26  27 0
 3-21G
 ****
 35  36  37  38  39  40  41  42  43  44  45 0
 3-21G
 ****


