%nproc=1
%NoSave
%Mem=1900MB
#P OB98/GEN NMR

erre ene a

0 1
  C     -357.031      76.834     159.333
  O     -357.816      77.300     160.437
  P     -357.349      77.014     161.951
  C     -359.786      76.797     162.678
  O     -358.541      77.425     162.951
  C     -360.997      77.613     163.162
  O     -360.872      77.939     164.568
  C     -361.233      78.928     162.415
  O     -362.648      79.125     162.384
  C     -360.558      79.939     163.330
  O     -360.997      81.276     163.073
  C     -360.919      79.376     164.703
  N     -360.024      79.858     165.750
  C     -360.250      81.139     166.255
  O     -361.141      81.842     165.772
  N     -359.432      81.609     167.244
  C     -358.421      80.916     167.641
  N     -357.632      81.447     168.618
  C     -358.086      79.576     167.078
  C     -358.930      79.114     166.159
  O     -356.012      77.587     162.310
  O     -357.323      75.410     162.041
  H     -360.515      81.875     163.673
  H     -356.641      75.141     162.686
  H     -357.216      79.036     167.430
  H     -358.781      78.151     165.697
  H     -361.944      79.651     164.981
  H     -359.473      79.906     163.175
  H     -360.819      78.927     161.401
  H     -361.889      76.969     163.071
  H     -357.874      82.374     168.951
  H     -359.799      75.813     163.169
  H     -356.759      81.037     168.919
  H     -359.879      76.610     161.604
  P     -363.572      78.540     161.217
  C     -362.885      80.233     159.423
  O     -363.925      79.761     160.250
  O     -364.750      77.746     161.679
  O     -362.578      77.643     160.329
  H     -363.099      77.034     159.774
  H     -363.296      80.911     158.668
  H     -362.386      79.404     158.914
  H     -362.148      80.780     160.032
  H     -357.501      77.120     158.415
  H     -356.952      75.768     159.377
  H     -356.054      77.267     159.383

 3  4  5  6  7  8  9  10  11  12  13  23  27  28  29  30  32 0
 6-311+G(2d,p)
 ****
 34  35 0
 6-311+G(2d,p)
 ****
 1  2  14  15  16  17  18  19  20  21  22  24  25  26 0
 3-21G
 ****
 31  33  36  37  38  39  40  41  42  43  44  45  46 0
 3-21G
 ****


