%nproc=1
%NoSave
%Mem=1900MB
#P OB98/GEN NMR

erre ene a

0 1
  C      349.173    -336.952    -395.590
  O      347.921    -336.457    -395.170
  H      349.441    -336.473    -396.534
  H      349.113    -338.032    -395.748
  H      349.944    -336.728    -394.848
  P      347.379    -336.966    -393.747
  C      346.387    -334.620    -393.263
  O      346.142    -336.019    -393.363
  C      345.081    -333.854    -393.077
  O      344.369    -333.818    -394.354
  C      344.126    -334.470    -392.043
  O      343.439    -333.400    -391.380
  C      343.119    -335.215    -392.906
  O      341.885    -335.450    -392.230
  C      343.021    -334.256    -394.091
  N      338.905    -336.625    -395.756
  C      339.176    -336.055    -394.526
  N      338.201    -336.121    -393.599
  N      340.306    -335.464    -394.238
  C      341.180    -335.437    -395.276
  C      341.037    -335.972    -396.532
  C      339.788    -336.645    -396.832
  O      339.499    -337.190    -397.892
  N      342.162    -335.761    -397.289
  C      342.983    -335.102    -396.490
  N      342.432    -334.884    -395.256
  O      348.535    -336.500    -392.743
  O      347.112    -338.431    -393.653
  H      341.188    -335.568    -392.911
  H      349.178    -337.224    -392.611
  H      338.025    -337.077    -395.922
  H      343.977    -334.771    -396.751
  H      342.414    -333.372    -393.866
  H      343.532    -336.180    -393.217
  H      337.288    -336.520    -393.762
  H      344.615    -335.110    -391.300
  H      338.367    -335.670    -392.702
  H      345.317    -332.813    -392.821
  H      346.878    -334.279    -394.185
  H      347.054    -334.434    -392.413
  P      344.054    -332.843    -390.012
  C      344.728    -330.428    -390.710
  O      343.839    -331.256    -389.977
  O      345.637    -332.977    -390.251
  O      343.616    -333.583    -388.791
  H      346.093    -333.090    -389.396
  H      344.448    -329.403    -390.582
  H      344.680    -330.684    -391.748
  H      345.726    -330.573    -390.353

 6  7  8  9  10  11  12  13  14  15  26  29  33  34 0
 6-311+G(2d,p)
 ****
 36  38  39  40  41 0
 6-311+G(2d,p)
 ****
 1  2  3  4  5  16  17  18  19  20  21  22  23  24  25 0
 3-21G
 ****
 27  28  30  31  32  35  37  42  43  44  45  46  47 0
 3-21G
 ****
 48  49 0
 3-21G
 ****


