%nproc=1
%NoSave
%Mem=1900MB
#P OB98/GEN NMR

erre ene a

0 1
  C       79.688     163.912     -24.425
  O       78.640     163.144     -23.812
  P       78.926     161.618     -23.397
  C       77.771     160.751     -25.579
  O       78.903     160.712     -24.720
  C       78.155     160.257     -26.977
  O       78.733     158.933     -26.906
  C       76.983     160.127     -27.939
  O       76.569     161.386     -28.442
  C       77.572     159.212     -29.008
  O       78.355     159.961     -29.951
  C       78.471     158.283     -28.168
  N       77.887     156.959     -27.975
  C       77.980     156.080     -29.049
  O       78.466     156.391     -30.135
  N       77.457     154.832     -28.845
  C       76.806     154.406     -27.721
  O       76.342     153.279     -27.606
  C       76.668     155.408     -26.652
  C       77.199     156.617     -26.828
  O       77.549     161.203     -22.686
  O       80.081     161.403     -22.475
  H       78.694     159.318     -30.606
  H       77.720     160.506     -22.026
  H       77.541     154.168     -29.600
  H       76.137     155.118     -25.755
  H       77.107     157.367     -26.047
  H       79.447     158.166     -28.653
  H       76.800     158.686     -29.578
  H       76.150     159.612     -27.447
  H       78.914     160.938     -27.383
  H       77.408     161.779     -25.651
  H       76.980     160.127     -25.153
  P       75.229     162.009     -27.809
  C       73.723     161.340     -29.839
  O       74.027     161.181     -28.469
  O       75.192     163.440     -28.526
  O       75.255     162.059     -26.320
  H       75.555     163.408     -29.429
  H       74.621     161.537     -30.430
  H       73.018     162.164     -29.961
  H       73.258     160.418     -30.204
  H       79.331     164.899     -24.635
  H       79.989     163.440     -25.337
  H       80.524     163.969     -23.760

 3  4  5  6  7  8  9  10  11  12  13  23  28  29  30  31  32 0
 6-311+G(2d,p)
 ****
 33  34 0
 6-311+G(2d,p)
 ****
 1  2  14  15  16  17  18  19  20  21  22  24  25  26 0
 3-21G
 ****
 27  35  36  37  38  39  40  41  42  43  44  45 0
 3-21G
 ****


