%nproc=1
%NoSave
%Mem=1900MB
#P OB98/GEN NMR

erre ene a

0 1
  C       21.048      83.356      88.234
  O       21.663      82.091      88.060
  P       20.995      81.081      87.004
  C       19.862      79.750      88.925
  O       19.689      80.479      87.716
  C       18.995      78.490      88.944
  O       19.348      77.695      90.102
  C       17.492      78.767      89.000
  O       16.834      77.780      88.204
  C       17.144      78.535      90.458
  O       15.768      78.200      90.625
  C       18.133      77.418      90.828
  N       18.373      77.349      92.266
  C       17.333      76.852      93.057
  O       16.250      76.571      92.544
  N       17.528      76.735      94.411
  C       18.625      77.178      94.941
  N       18.773      77.036      96.285
  C       19.697      77.822      94.157
  C       19.516      77.854      92.838
  O       22.013      79.849      86.996
  O       20.788      81.655      85.640
  H       15.518      78.391      91.557
  H       22.041      79.427      86.116
  H       20.576      78.208      94.653
  H       20.259      78.286      92.182
  H       17.759      76.443      90.490
  H       17.352      79.441      91.041
  H       17.231      79.767      88.640
  H       19.238      77.895      88.055
  H       18.018      76.605      96.802
  H       19.565      80.382      89.767
  H       19.593      77.352      96.785
  H       20.919      79.495      89.047
  P       15.775      78.289      87.113
  C       13.894      77.305      88.556
  O       14.401      78.462      87.919
  O       15.496      76.941      86.288
  O       16.173      79.404      86.204
  H       14.901      77.132      85.540
  H       13.040      77.592      89.174
  H       14.657      76.855      89.195
  H       13.558      76.584      87.807
  H       21.594      83.921      88.961
  H       20.041      83.220      88.570
  H       21.045      83.882      87.302

 3  4  5  6  7  8  9  10  11  12  13  21  23  27  28  29  30  32 0
 6-311+G(2d,p)
 ****
 34  35 0
 6-311+G(2d,p)
 ****
 1  2  14  15  16  17  18  19  20  22  24  25  26 0
 3-21G
 ****
 31  33  36  37  38  39  40  41  42  43  44  45  46 0
 3-21G
 ****


