%nproc=1
%NoSave
%Mem=1900MB
#P OB98/GEN NMR

erre ene a

0 1
  C      145.875     825.041    1080.750
  O      144.835     825.051    1079.775
  P      143.305     824.973    1080.236
  C      143.083     822.528    1080.959
  O      142.798     823.481    1079.960
  C      142.273     821.251    1080.741
  O      140.849     821.525    1080.827
  C      142.497     820.621    1079.365
  O      143.726     819.917    1079.301
  C      141.255     819.728    1079.249
  O      141.463     818.467    1079.957
  C      140.188     820.567    1079.946
  N      135.336     821.544    1078.699
  C      135.884     820.663    1079.588
  N      137.188     820.449    1079.831
  C      137.957     821.205    1079.036
  C      137.560     822.115    1078.066
  C      136.154     822.286    1077.930
  N      135.580     823.208    1077.073
  N      138.628     822.678    1077.430
  C      139.704     822.121    1078.006
  N      139.333     821.281    1079.018
  O      142.416     826.071    1079.719
  O      143.381     825.045    1081.845
  H      142.001     817.908    1079.395
  H      142.897     825.828    1082.155
  H      135.180     820.088    1080.177
  H      140.714     822.335    1077.724
  H      139.543     819.955    1080.603
  H      141.018     819.463    1078.210
  H      142.460     821.387    1078.583
  H      142.514     820.530    1081.546
  H      142.832     822.949    1081.934
  H      134.584     823.344    1077.159
  H      136.156     823.958    1076.731
  H      144.154     822.300    1080.961
  P      144.642     820.031    1077.988
  C      143.216     818.289    1076.741
  O      144.518     818.636    1077.222
  O      146.051     820.493    1078.205
  O      143.820     821.034    1077.035
  H      144.456     821.532    1076.489
  H      142.608     817.916    1077.589
  H      143.306     817.509    1076.010
  H      142.728     819.149    1076.300
  H      146.824     825.099    1080.260
  H      145.822     824.136    1081.318
  H      145.759     825.880    1081.404

 3  4  5  6  7  8  9  10  11  12  22  25  29  30  31  32 0
 6-311+G(2d,p)
 ****
 33  36  37 0
 6-311+G(2d,p)
 ****
 1  2  13  14  15  16  17  18  19  20  21  23  24  26 0
 3-21G
 ****
 27  28  34  35  38  39  40  41  42  43  44  45  46  47  48 0
 3-21G
 ****


