%nproc=1
%NoSave
%Mem=1900MB
#P OB98/GEN NMR

erre ene a

0 1
  C      120.307     255.067      -0.022
  O      120.694     254.827      -1.381
  P      119.564     254.359      -2.416
  C      120.522     251.944      -2.578
  O      119.396     252.768      -2.306
  C      120.347     250.568      -1.929
  O      119.177     249.888      -2.422
  C      121.506     249.618      -2.189
  O      122.589     249.859      -1.300
  C      120.863     248.275      -1.881
  O      120.825     248.065      -0.456
  C      119.442     248.466      -2.427
  N      118.443     244.308      -5.249
  C      118.595     244.479      -3.915
  N      118.877     245.613      -3.240
  C      118.990     246.651      -4.084
  C      118.862     246.630      -5.464
  C      118.574     245.389      -6.052
  N      118.418     245.223      -7.409
  N      119.055     247.889      -5.992
  C      119.282     248.661      -4.947
  N      119.260     247.957      -3.775
  O      120.274     254.555      -3.839
  O      118.297     255.143      -2.324
  H      121.750     247.997      -0.154
  H      119.612     254.830      -4.501
  H      118.473     243.586      -3.310
  H      119.461     249.728      -4.992
  H      118.685     247.986      -1.793
  H      121.415     247.436      -2.312
  H      121.817     249.656      -3.241
  H      120.230     250.717      -0.847
  H      121.433     252.421      -2.208
  H      118.187     244.306      -7.757
  H      118.493     246.029      -8.012
  H      120.642     251.853      -3.662
  P      123.780     250.793      -1.831
  C      124.450     248.644      -3.130
  O      124.363     250.056      -3.128
  O      124.916     250.590      -0.722
  O      123.410     252.228      -2.000
  H      125.458     251.399      -0.648
  H      124.568     248.302      -4.161
  H      123.544     248.194      -2.714
  H      125.319     248.328      -2.548
  H      121.163     255.371       0.544
  H      119.902     254.170       0.397
  H      119.568     255.840       0.007

 3  4  5  6  7  8  9  10  11  12  22  25  29  30  31  32 0
 6-311+G(2d,p)
 ****
 33  36  37 0
 6-311+G(2d,p)
 ****
 1  2  13  14  15  16  17  18  19  20  21  23  24  26 0
 3-21G
 ****
 27  28  34  35  38  39  40  41  42  43  44  45  46  47  48 0
 3-21G
 ****


