%nproc=1
%NoSave
%Mem=1900MB
#P OB98/GEN NMR

erre ene a

0 1
  C     -166.324     407.478     214.885
  O     -166.025     408.861     214.888
  H     -166.515     407.162     213.856
  H     -167.218     407.277     215.482
  H     -165.478     406.906     215.276
  P     -165.784     409.589     216.293
  C     -163.217     409.803     216.035
  O     -164.295     409.209     216.749
  C     -162.245     410.484     216.996
  O     -161.616     409.505     217.849
  C     -161.106     411.231     216.312
  O     -161.563     412.447     215.759
  C     -160.122     411.364     217.462
  O     -160.509     412.425     218.347
  C     -160.281     409.990     218.158
  N     -159.275     409.011     217.764
  C     -158.188     408.863     218.635
  O     -158.116     409.545     219.658
  N     -157.205     407.958     218.307
  C     -157.318     407.236     217.236
  N     -156.315     406.352     216.973
  C     -158.469     407.335     216.313
  C     -159.388     408.243     216.625
  O     -166.829     409.368     217.341
  O     -165.658     411.139     215.907
  H     -159.887     412.384     219.106
  H     -166.523     411.584     215.991
  H     -158.524     406.705     215.435
  H     -160.265     408.378     215.998
  H     -160.238     410.107     219.248
  H     -159.109     411.580     217.120
  H     -160.649     410.596     215.537
  H     -162.823     411.160     217.642
  H     -155.559     406.306     217.649
  H     -163.653     410.546     215.353
  H     -156.372     405.633     216.267
  H     -162.691     409.052     215.436
  P     -160.754     413.206     214.600
  C     -161.355     411.543     212.727
  O     -160.319     412.062     213.550
  O     -159.638     414.077     215.073
  O     -161.892     413.995     213.798
  H     -162.164     414.808     214.303
  H     -160.952     410.796     212.075
  H     -161.778     412.335     212.144
  H     -162.115     411.107     213.342

 6  7  8  9  10  11  12  13  14  15  16  26  30  31  32  33  35 0
 6-311+G(2d,p)
 ****
 37  38 0
 6-311+G(2d,p)
 ****
 1  2  3  4  5  17  18  19  20  21  22  23  24  25 0
 3-21G
 ****
 27  28  29  34  36  39  40  41  42  43  44  45  46 0
 3-21G
 ****


