%nproc=1
%NoSave
%Mem=1900MB
#P OB98/GEN NMR

erre ene a

0 1
  C      252.915     230.614     312.576
  O      251.575     230.201     312.368
  H      252.973     231.696     312.433
  H      253.576     230.123     311.858
  H      253.226     230.373     313.596
  P      251.298     228.620     312.422
  C      250.722     228.549     309.877
  O      251.594     228.136     310.918
  C      251.275     228.114     308.527
  O      252.576     228.696     308.289
  C      251.478     226.607     308.381
  O      250.268     225.897     308.143
  C      252.394     226.577     307.172
  O      251.636     226.854     305.979
  C      253.356     227.742     307.511
  N      254.540     227.313     308.256
  C      255.609     226.808     307.498
  O      255.531     226.739     306.275
  N      256.726     226.363     308.160
  C      256.792     226.436     309.453
  N      257.929     225.978     310.048
  C      255.701     226.968     310.287
  C      254.616     227.385     309.633
  O      249.703     228.530     312.515
  O      252.026     227.863     313.484
  H      252.264     226.832     305.238
  H      249.413     227.588     312.405
  H      255.792     226.996     311.365
  H      253.770     227.787     310.178
  H      253.678     228.256     306.595
  H      252.884     225.613     307.024
  H      252.010     226.188     309.243
  H      250.600     228.496     307.747
  H      258.633     225.562     309.457
  H      250.643     229.648     309.912
  H      258.011     225.851     311.046
  H      249.730     228.122     310.024
  P      250.107     224.462     308.855
  C      250.967     223.248     306.715
  O      251.117     223.465     308.114
  O      248.668     223.973     308.354
  O      250.207     224.488     310.346
  H      248.218     223.451     309.045
  H      251.715     222.561     306.378
  H      251.077     224.177     306.196
  H      249.996     222.843     306.519

 6  7  8  9  10  11  12  13  14  15  16  26  30  31  32  33  35 0
 6-311+G(2d,p)
 ****
 37  38 0
 6-311+G(2d,p)
 ****
 1  2  3  4  5  17  18  19  20  21  22  23  24  25 0
 3-21G
 ****
 27  28  29  34  36  39  40  41  42  43  44  45  46 0
 3-21G
 ****


