%nproc=1
%NoSave
%Mem=1900MB
#P OB98/GEN NMR

erre ene a

0 1
  C       -1.932    -243.307     122.622
  O       -1.871    -243.355     121.209
  H       -2.982    -243.285     122.924
  H       -1.440    -242.406     122.999
  H       -1.466    -244.198     123.053
  P       -0.428    -243.281     120.505
  C       -0.737    -245.681     119.569
  O        0.037    -244.819     120.391
  C       -0.177    -245.707     118.152
  O        1.230    -246.037     118.152
  C       -0.813    -246.741     117.225
  O       -2.116    -246.389     116.790
  C        0.200    -246.743     116.093
  O        0.016    -245.574     115.280
  C        1.533    -246.672     116.877
  N        2.138    -247.990     117.094
  C        3.067    -248.419     116.136
  O        3.348    -247.701     115.174
  N        3.635    -249.663     116.280
  C        3.292    -250.421     117.273
  N        3.846    -251.664     117.339
  C        2.327    -250.006     118.311
  C        1.792    -248.800     118.161
  O        0.566    -242.359     121.133
  O       -0.747    -242.928     118.976
  H       -0.776    -245.728     114.726
  H        0.117    -242.859     118.499
  H        2.070    -250.681     119.117
  H        1.061    -248.429     118.873
  H        2.259    -246.031     116.361
  H        0.106    -247.615     115.431
  H       -0.815    -247.736     117.696
  H       -0.268    -244.690     117.737
  H        4.473    -251.934     116.584
  H       -1.774    -245.321     119.579
  H        3.438    -252.402     117.899
  H       -0.717    -246.704     119.967
  P       -3.098    -247.564     116.314
  C       -4.533    -247.144     118.451
  O       -3.868    -248.086     117.624
  O       -2.086    -248.757     115.968
  O       -4.007    -247.233     115.167
  H       -1.860    -248.764     115.024
  H       -4.991    -247.652     119.274
  H       -5.284    -246.637     117.882
  H       -3.825    -246.432     118.821

 6  7  8  9  10  11  12  13  14  15  16  26  30  31  32  33  35 0
 6-311+G(2d,p)
 ****
 37  38 0
 6-311+G(2d,p)
 ****
 1  2  3  4  5  17  18  19  20  21  22  23  24  25 0
 3-21G
 ****
 27  28  29  34  36  39  40  41  42  43  44  45  46 0
 3-21G
 ****


