%nproc=1
%NoSave
%Mem=1900MB
#P OB98/GEN NMR

erre ene a

0 1
  C       71.374     250.386      26.877
  O       69.939     250.302      26.900
  P       69.236     248.873      26.683
  C       68.760     249.039      24.115
  O       69.476     248.409      25.165
  C       68.840     248.196      22.838
  O       70.210     247.842      22.548
  C       68.096     246.868      22.920
  O       66.696     247.034      22.783
  C       68.730     246.099      21.765
  O       68.117     246.450      20.513
  C       70.189     246.599      21.815
  N       71.101     245.620      22.395
  C       71.477     244.562      21.572
  O       71.037     244.402      20.437
  N       72.361     243.667      22.116
  C       72.839     243.689      23.397
  O       73.612     242.846      23.833
  C       72.342     244.782      24.244
  C       71.506     245.679      23.711
  O       67.680     249.267      26.663
  O       69.508     247.847      27.734
  H       67.207     246.097      20.538
  H       67.150     248.511      26.974
  H       72.670     242.912      21.528
  H       72.676     244.824      25.272
  H       71.129     246.494      24.326
  H       70.539     246.844      20.802
  H       68.632     245.014      21.881
  H       68.338     246.362      23.861
  H       68.458     248.797      22.002
  H       69.195     250.022      23.919
  H       67.717     249.171      24.425
  P       65.805     246.761      24.093
  C       64.961     244.528      23.026
  O       65.573     245.176      24.121
  O       64.399     247.382      23.640
  O       66.384     247.365      25.326
  H       64.242     247.269      22.687
  H       65.210     245.014      22.078
  H       63.874     244.538      23.164
  H       65.304     243.490      22.994
  H       71.674     251.401      27.036
  H       71.736     250.052      25.927
  H       71.780     249.768      27.651

 3  4  5  6  7  8  9  10  11  12  13  23  28  29  30  31  32 0
 6-311+G(2d,p)
 ****
 33  34 0
 6-311+G(2d,p)
 ****
 1  2  14  15  16  17  18  19  20  21  22  24  25  26 0
 3-21G
 ****
 27  35  36  37  38  39  40  41  42  43  44  45 0
 3-21G
 ****


