%nproc=1
%NoSave
%Mem=1900MB
#P OB98/GEN NMR

erre ene a

0 1
  C      886.007     300.854     892.711
  O      886.473     301.938     893.505
  H      884.985     300.619     893.016
  H      886.640     299.979     892.863
  H      886.009     301.134     891.653
  P      887.977     302.424     893.226
  C      889.132     300.218     893.940
  O      888.913     301.586     894.232
  C      890.227     299.651     894.837
  O      891.486     300.315     894.601
  C      889.939     299.762     896.332
  O      889.099     298.708     896.778
  C      891.345     299.685     896.916
  O      891.805     298.309     896.999
  C      892.166     300.461     895.878
  N      895.282     303.915     897.866
  C      895.474     302.565     897.647
  N      896.651     302.045     898.062
  N      894.586     301.788     897.069
  C      893.447     302.433     896.738
  C      893.146     303.772     896.885
  C      894.152     304.634     897.500
  O      894.071     305.843     897.659
  N      891.900     304.056     896.402
  C      891.426     302.901     895.995
  N      892.324     301.877     896.195
  O      888.011     303.912     893.846
  O      888.400     302.424     891.797
  H      891.172     297.799     897.532
  H      888.645     304.450     893.343
  H      896.014     304.461     898.287
  H      890.445     302.752     895.563
  H      893.175     300.060     895.752
  H      891.392     300.093     897.926
  H      897.201     302.487     898.784
  H      889.501     300.753     896.568
  H      896.780     301.048     897.926
  H      890.366     298.591     894.555
  H      889.439     300.117     892.895
  H      888.197     299.659     894.085
  P      887.597     299.084     897.218
  C      888.180     299.303     899.756
  O      887.448     298.601     898.744
  O      886.696     298.040     896.413
  O      887.204     300.490     896.936
  H      885.779     298.339     896.388
  H      887.977     298.866     900.711
  H      887.882     300.331     899.764
  H      889.228     299.237     899.549

 6  7  8  9  10  11  12  13  14  15  26  29  33  34 0
 6-311+G(2d,p)
 ****
 36  38  39  40  41 0
 6-311+G(2d,p)
 ****
 1  2  3  4  5  16  17  18  19  20  21  22  23  24  25 0
 3-21G
 ****
 27  28  30  31  32  35  37  42  43  44  45  46  47 0
 3-21G
 ****
 48  49 0
 3-21G
 ****


