%nproc=1
%NoSave
%Mem=1900MB
#P OB98/GEN NMR

erre ene a

0 1
  C      388.673    -597.290     159.620
  O      388.174    -596.791     160.844
  H      389.536    -597.929     159.828
  H      388.990    -596.468     158.972
  H      387.904    -597.885     159.119
  P      386.919    -595.796     160.756
  C      385.914    -596.575     162.995
  O      385.759    -596.543     161.579
  C      384.696    -597.249     163.646
  O      383.568    -596.347     163.549
  C      384.301    -598.567     162.975
  O      383.872    -599.490     163.976
  C      383.120    -598.185     162.103
  O      382.252    -599.285     161.844
  C      382.485    -597.053     162.916
  N      377.848    -596.139     160.991
  C      378.284    -597.034     161.908
  N      379.541    -597.197     162.375
  C      380.373    -596.289     161.832
  C      380.071    -595.326     160.888
  C      378.734    -595.272     160.455
  N      378.283    -594.392     159.507
  N      381.207    -594.608     160.545
  C      382.172    -595.127     161.287
  N      381.719    -596.155     162.067
  O      386.544    -595.350     159.383
  O      387.357    -594.627     161.759
  H      381.513    -598.970     161.286
  H      387.743    -594.990     162.578
  H      377.537    -597.705     162.317
  H      383.208    -594.805     161.282
  H      381.807    -597.428     163.694
  H      383.482    -597.806     161.135
  H      385.116    -599.003     162.392
  H      384.901    -597.389     164.715
  H      386.019    -595.558     163.388
  H      377.303    -594.408     159.260
  H      378.927    -593.719     159.105
  H      386.823    -597.137     163.228
  P      384.535    -600.951     163.994
  C      385.530    -600.387     166.313
  O      385.774    -600.940     165.021
  O      384.811    -601.560     162.664
  O      383.442    -601.811     164.795
  H      383.387    -602.703     164.407
  H      386.425    -600.438     166.897
  H      384.755    -600.943     166.798
  H      385.227    -599.366     166.212

 6  7  8  9  10  11  12  13  14  15  25  28  32  33  34  35 0
 6-311+G(2d,p)
 ****
 36  39  40 0
 6-311+G(2d,p)
 ****
 1  2  3  4  5  16  17  18  19  20  21  22  23  24 0
 3-21G
 ****
 26  27  29  30  31  37  38  41  42  43  44  45  46  47 0
 3-21G
 ****
 48 0
 3-21G
 ****


