%nproc=1
%NoSave
%Mem=1900MB
#P OB98/GEN NMR

erre ene a

0 1
  C     -882.624     580.636    1324.020
  O     -883.778     579.884    1323.700
  P     -884.109     579.621    1322.162
  C     -884.436     576.995    1322.064
  O     -885.024     578.295    1322.105
  C     -885.509     575.933    1322.265
  O     -885.942     575.912    1323.630
  C     -886.758     576.121    1321.427
  O     -886.550     575.736    1320.060
  C     -887.762     575.249    1322.190
  O     -887.595     573.865    1321.825
  C     -887.330     575.476    1323.643
  N     -888.184     576.431    1324.352
  C     -889.310     575.923    1324.980
  O     -889.605     574.727    1324.953
  N     -890.111     576.830    1325.620
  C     -889.944     578.172    1325.642
  O     -890.711     578.963    1326.206
  C     -888.743     578.687    1324.939
  C     -887.937     577.810    1324.315
  O     -882.681     579.139    1321.610
  O     -884.686     580.810    1321.468
  H     -882.143     578.735    1322.318
  H     -887.822     573.792    1320.877
  H     -890.918     576.473    1326.103
  H     -888.571     579.750    1324.943
  H     -887.048     578.168    1323.795
  H     -887.374     574.540    1324.198
  H     -888.806     575.525    1321.972
  H     -887.082     577.181    1321.474
  H     -885.033     574.942    1322.047
  H     -883.682     576.926    1322.870
  H     -883.930     576.871    1321.099
  P     -886.996     576.818    1318.937
  C     -884.745     577.937    1318.197
  O     -885.732     576.983    1317.951
  O     -886.974     578.184    1319.803
  O     -888.305     576.504    1318.287
  H     -886.218     578.243    1320.401
  H     -883.826     577.650    1317.676
  H     -884.500     578.029    1319.266
  H     -885.096     578.921    1317.814
  H     -882.540     580.725    1325.083
  H     -882.702     581.611    1323.586
  H     -881.757     580.141    1323.634

 3  4  5  6  7  8  9  10  11  12  13  24  28  29  30  31  32 0
 6-311+G(2d,p)
 ****
 33  34 0
 6-311+G(2d,p)
 ****
 1  2  14  15  16  17  18  19  20  21  22  23  25  26  27 0
 3-21G
 ****
 35  36  37  38  39  40  41  42  43  44  45 0
 3-21G
 ****


