%nproc=1
%NoSave
%Mem=1900MB
#P OB98/GEN NMR

erre ene a

0 1
  C      118.359    -472.711     131.857
  O      119.084    -472.825     130.638
  P      118.339    -472.376     129.284
  C      119.239    -474.545     128.177
  O      118.105    -473.730     128.459
  C      118.878    -476.021     128.271
  O      118.231    -476.284     129.531
  C      117.910    -476.502     127.206
  O      118.558    -476.770     125.978
  C      117.382    -477.784     127.847
  O      118.317    -478.851     127.616
  C      117.341    -477.410     129.336
  N      113.465    -478.770     132.296
  C      114.669    -479.400     132.076
  N      114.888    -480.548     132.756
  N      115.584    -478.955     131.253
  C      115.249    -477.783     130.666
  C      114.083    -477.064     130.807
  C      113.060    -477.594     131.682
  O      111.944    -477.112     131.869
  N      114.115    -475.909     130.061
  C      115.312    -475.910     129.507
  N      116.026    -477.046     129.816
  O      119.498    -471.638     128.466
  O      117.147    -471.503     129.480
  H      118.301    -479.048     126.663
  H      119.102    -470.995     127.843
  H      112.806    -479.150     132.955
  H      115.698    -475.129     128.873
  H      117.728    -478.232     129.957
  H      116.419    -478.099     127.432
  H      114.282    -480.867     133.501
  H      117.081    -475.791     127.077
  H      115.782    -481.008     132.643
  H      119.807    -476.601     128.238
  H      120.030    -474.321     128.911
  H      119.617    -474.300     127.177
  P      118.173    -475.827     124.731
  C      117.911    -478.046     123.396
  O      117.368    -476.775     123.721
  O      119.578    -475.586     124.003
  O      117.499    -474.552     125.119
  H      119.559    -474.744     123.512
  H      118.417    -478.497     124.262
  H      118.624    -477.933     122.578
  H      117.106    -478.703     123.084
  H      118.972    -473.042     132.669
  H      117.478    -473.316     131.806
  H      118.082    -471.689     132.013

 3  4  5  6  7  8  9  10  11  12  23  26  30  31  33  0
 6-311+G(2d,p)
 ****
 35  36  37  38 0
 6-311+G(2d,p)
 ****
 1  2  13  14  15  16  17  18  19  20  21  22  24  25  27  28  29 0
 3-21G
 ****
 32  34  39  40  41  42  43  44  45  46  47  48  49 0
 3-21G
 ****


