%nproc=1
%NoSave
%Mem=1900MB
#P OB98/GEN NMR

erre ene a

0 1
  C     -156.709    -194.284     -84.637
  O     -157.953    -193.887     -84.093
  H     -155.924    -194.050     -83.913
  H     -156.509    -193.743     -85.567
  H     -156.711    -195.360     -84.821
  P     -159.245    -194.113     -85.022
  C     -160.022    -196.015     -83.461
  O     -159.637    -195.657     -84.784
  C     -160.064    -197.540     -83.315
  O     -158.766    -198.071     -83.678
  C     -160.377    -198.002     -81.886
  O     -161.212    -199.165     -81.940
  C     -159.011    -198.389     -81.334
  O     -159.102    -199.347     -80.289
  C     -158.294    -198.883     -82.592
  N     -154.181    -200.843     -80.290
  C     -155.468    -201.248     -80.334
  N     -156.508    -200.676     -80.994
  C     -156.084    -199.589     -81.685
  C     -154.808    -199.072     -81.736
  C     -153.824    -199.736     -80.979
  N     -152.510    -199.320     -80.912
  N     -154.785    -197.931     -82.524
  C     -156.025    -197.785     -82.942
  N     -156.851    -198.766     -82.456
  O     -159.100    -193.703     -86.452
  O     -160.381    -193.339     -84.198
  H     -158.227    -199.409     -79.852
  H     -160.321    -193.536     -83.244
  H     -155.701    -202.143     -79.769
  H     -156.376    -196.994     -83.600
  H     -158.515    -199.939     -82.815
  H     -158.517    -197.494     -80.936
  H     -160.858    -197.230     -81.287
  H     -160.792    -197.944     -84.033
  H     -161.010    -195.597     -83.236
  H     -151.868    -199.868     -80.358
  H     -152.228    -198.504     -81.441
  H     -159.295    -195.585     -82.768
  P     -162.781    -198.954     -82.106
  C     -162.859    -199.992     -84.469
  O     -163.135    -198.844     -83.672
  O     -163.408    -197.910     -81.238
  O     -163.368    -200.412     -81.731
  H     -164.208    -200.291     -81.240
  H     -163.136    -199.796     -85.484
  H     -163.420    -200.825     -84.101
  H     -161.814    -200.217     -84.421

 6  7  8  9  10  11  12  13  14  15  25  28  32  33  34  35 0
 6-311+G(2d,p)
 ****
 36  39  40 0
 6-311+G(2d,p)
 ****
 1  2  3  4  5  16  17  18  19  20  21  22  23  24 0
 3-21G
 ****
 26  27  29  30  31  37  38  41  42  43  44  45  46  47 0
 3-21G
 ****
 48 0
 3-21G
 ****


