%nproc=1
%NoSave
%Mem=1900MB
#P OB98/GEN NMR

erre ene a

0 1
  C       25.258    -486.563    -296.216
  O       24.118    -487.373    -296.405
  H       25.881    -487.008    -295.435
  H       24.954    -485.564    -295.889
  H       25.850    -486.486    -297.135
  P       23.178    -487.112    -297.683
  C       21.502    -485.988    -296.066
  O       21.688    -486.937    -297.107
  C       20.221    -486.304    -295.289
  O       19.102    -486.268    -296.222
  C       20.230    -487.694    -294.627
  O       19.496    -487.616    -293.396
  C       19.464    -488.519    -295.641
  O       18.952    -489.706    -295.075
  C       18.400    -487.518    -296.091
  N       17.754    -487.943    -297.329
  C       16.845    -488.983    -297.240
  O       16.568    -489.569    -296.186
  N       16.291    -489.411    -298.416
  C       16.644    -488.973    -299.664
  O       16.188    -489.444    -300.694
  C       17.661    -487.903    -299.705
  C       18.160    -487.443    -298.554
  O       23.307    -488.089    -298.804
  O       23.535    -485.616    -298.133
  H       18.434    -489.499    -294.275
  H       23.285    -485.470    -299.069
  H       15.619    -490.156    -298.368
  H       17.976    -487.542    -300.674
  H       18.912    -486.662    -298.544
  H       17.635    -487.390    -295.315
  H       20.114    -488.801    -296.470
  H       21.246    -488.071    -294.433
  H       20.046    -485.510    -294.551
  H       21.428    -484.995    -296.528
  H       22.367    -486.004    -295.394
  P       20.216    -487.249    -292.005
  C       19.515    -489.348    -290.704
  O       19.437    -487.926    -290.770
  O       20.483    -485.786    -291.825
  O       21.605    -488.044    -292.053
  H       22.325    -487.460    -291.763
  H       18.968    -489.696    -289.853
  H       20.539    -489.645    -290.616
  H       19.097    -489.770    -291.594

 6  7  8  9  10  11  12  13  14  15  16  26  31  32  33  34  35 0
 6-311+G(2d,p)
 ****
 36  37 0
 6-311+G(2d,p)
 ****
 1  2  3  4  5  17  18  19  20  21  22  23  24  25 0
 3-21G
 ****
 27  28  29  30  38  39  40  41  42  43  44  45 0
 3-21G
 ****


