%nproc=1
%NoSave
%Mem=1900MB
#P OB98/GEN NMR

erre ene a

0 1
  C      -28.815    -847.917      49.003
  O      -28.176    -848.729      48.018
  P      -28.603    -848.475      46.475
  C      -26.330    -848.219      45.238
  O      -27.430    -849.058      45.550
  C      -25.089    -849.074      44.918
  O      -24.618    -849.778      46.089
  C      -25.329    -850.141      43.888
  O      -25.304    -849.630      42.557
  C      -24.129    -851.064      44.115
  O      -22.979    -850.532      43.419
  C      -23.934    -850.972      45.633
  N      -22.892    -855.515      47.633
  C      -22.068    -854.636      46.961
  N      -20.769    -854.999      46.821
  N      -22.480    -853.485      46.464
  C      -23.786    -853.245      46.703
  C      -24.707    -854.035      47.348
  C      -24.256    -855.317      47.862
  O      -24.949    -856.148      48.444
  N      -25.940    -853.442      47.401
  C      -25.769    -852.279      46.809
  N      -24.470    -852.115      46.356
  O      -28.442    -846.885      46.320
  O      -29.989    -848.939      46.161
  H      -22.280    -851.229      43.446
  H      -29.047    -846.563      45.625
  H      -22.529    -856.375      47.991
  H      -26.530    -851.516      46.696
  H      -22.881    -850.860      45.912
  H      -24.285    -852.086      43.729
  H      -20.377    -855.841      47.250
  H      -26.258    -850.699      44.078
  H      -20.142    -854.348      46.374
  H      -24.290    -848.383      44.587
  H      -26.097    -847.578      46.102
  H      -26.590    -847.578      44.405
  P      -26.480    -850.087      41.559
  C      -26.720    -847.574      40.935
  O      -26.616    -848.903      40.474
  O      -27.799    -849.944      42.457
  O      -26.313    -851.467      41.019
  H      -28.474    -850.592      42.154
  H      -26.019    -847.386      41.753
  H      -27.744    -847.397      41.295
  H      -26.494    -846.906      40.112
  H      -28.450    -848.180      49.974
  H      -29.872    -848.076      48.965
  H      -28.602    -846.887      48.809

 3  4  5  6  7  8  9  10  11  12  23  26  30  31  33  0
 6-311+G(2d,p)
 ****
 35  36  37  38 0
 6-311+G(2d,p)
 ****
 1  2  13  14  15  16  17  18  19  20  21  22  24  25  27  28  29 0
 3-21G
 ****
 32  34  39  40  41  42  43  44  45  46  47  48  49 0
 3-21G
 ****


