%nproc=1
%NoSave
%Mem=1900MB
#P OB98/GEN NMR

erre ene a

0 1
  C      -91.421    -428.246    -194.023
  O      -91.370    -428.198    -195.435
  H      -91.692    -429.260    -193.719
  H      -92.176    -427.553    -193.644
  H      -90.444    -428.003    -193.597
  P      -91.032    -426.801    -196.141
  C      -92.135    -424.466    -196.197
  O      -92.276    -425.834    -195.835
  C      -93.472    -423.740    -196.054
  O      -94.425    -424.253    -197.004
  C      -94.116    -423.881    -194.677
  O      -93.546    -422.958    -193.762
  C      -95.562    -423.547    -195.012
  O      -95.704    -422.122    -195.172
  C      -95.738    -424.247    -196.372
  N      -99.759    -427.218    -195.496
  C      -99.617    -425.854    -195.342
  N     -100.687    -425.188    -194.855
  N      -98.521    -425.199    -195.626
  C      -97.507    -426.001    -196.033
  C      -97.522    -427.366    -196.207
  C      -98.762    -428.069    -195.953
  O      -98.938    -429.276    -196.101
  N      -96.280    -427.842    -196.545
  C      -95.529    -426.760    -196.625
  N      -96.227    -425.614    -196.313
  O      -90.661    -426.869    -197.591
  O      -89.858    -426.182    -195.247
  H      -94.916    -421.805    -195.652
  H      -88.983    -426.429    -195.596
  H     -100.624    -427.669    -195.251
  H      -94.482    -426.747    -196.904
  H      -96.416    -423.695    -197.032
  H      -96.261    -423.856    -194.234
  H     -101.502    -425.652    -194.481
  H      -94.065    -424.910    -194.310
  H     -100.582    -424.197    -194.682
  H      -93.307    -422.685    -196.303
  H      -91.791    -424.432    -197.236
  H      -91.384    -423.981    -195.564
  P      -92.988    -423.432    -192.330
  C      -94.066    -424.542    -190.253
  O      -94.237    -424.124    -191.598
  O      -92.311    -422.368    -191.535
  O      -92.061    -424.693    -192.666
  H      -91.140    -424.437    -192.912
  H      -94.974    -424.982    -189.898
  H      -93.818    -423.697    -189.646
  H      -93.276    -425.262    -190.201

 6  7  8  9  10  11  12  13  14  15  26  29  33  34 0
 6-311+G(2d,p)
 ****
 36  38  39  40  41 0
 6-311+G(2d,p)
 ****
 1  2  3  4  5  16  17  18  19  20  21  22  23  24  25 0
 3-21G
 ****
 27  28  30  31  32  35  37  42  43  44  45  46  47 0
 3-21G
 ****
 48  49 0
 3-21G
 ****


