%nproc=1
%NoSave
%Mem=1900MB
#P OB98/GEN NMR

erre ene a

0 1
  C      325.964    -899.190     886.946
  O      325.781    -897.800     886.938
  P      326.768    -896.860     886.065
  C      327.454    -895.480     888.131
  O      327.906    -896.350     887.075
  C      328.636    -895.140     889.071
  O      329.123    -896.340     889.722
  C      329.853    -894.580     888.326
  O      329.720    -893.300     887.745
  C      330.920    -894.730     889.412
  O      330.858    -893.660     890.370
  C      330.518    -896.060     890.094
  N      331.398    -897.170     889.696
  C      332.527    -897.330     890.475
  O      332.805    -896.610     891.429
  N      333.386    -898.330     890.099
  C      333.219    -899.140     888.995
  O      334.063    -900.000     888.703
  C      331.987    -898.920     888.194
  C      331.160    -897.940     888.565
  O      326.090    -895.770     885.279
  O      327.566    -897.920     885.168
  H      331.323    -893.950     891.167
  H      328.071    -898.580     885.661
  H      334.222    -898.460     890.636
  H      331.857    -899.530     887.359
  H      330.256    -897.750     887.994
  H      330.537    -895.960     891.179
  H      331.937    -894.710     889.001
  H      330.115    -895.270     887.515
  H      328.266    -894.460     889.839
  H      326.670    -895.990     888.702
  H      327.031    -894.560     887.697
  P      330.836    -892.670     886.786
  C      331.501    -890.650     888.284
  O      331.916    -891.900     887.704
  O      330.380    -891.980     885.547
  O      331.693    -893.980     886.356
  H      332.056    -893.840     885.448
  H      332.364    -890.260     888.836
  H      330.655    -890.800     888.988
  H      331.238    -889.950     887.515
  H      325.225    -899.643     887.573
  H      326.939    -899.419     887.322
  H      325.868    -899.568     885.950

 3  4  5  6  7  8  9  10  11  12  13  23  28  29  30  31  32 0
 6-311+G(2d,p)
 ****
 33  34 0
 6-311+G(2d,p)
 ****
 1  2  14  15  16  17  18  19  20  21  22  24  25  26  27 0
 3-21G
 ****
 35  36  37  38  39  40  41  42  43  44  45 0
 3-21G
 ****


