%nproc=1
%NoSave
%Mem=1900MB
#P OB98/GEN NMR

erre ene a

0 1
  C      582.444     107.892     465.595
  O      583.802     107.796     465.186
  P      584.821     106.765     465.883
  C      585.828     108.801     467.126
  O      585.296     107.491     467.233
  C      587.102     108.920     467.965
  O      587.623     110.273     467.802
  C      586.898     108.683     469.466
  O      588.086     108.048     469.952
  C      586.772     110.091     470.027
  O      587.071     110.154     471.414
  C      587.760     110.842     469.126
  N      587.509     112.287     469.097
  C      588.076     113.058     470.107
  O      588.751     112.545     471.002
  N      587.875     114.425     470.086
  C      587.095     114.950     469.188
  N      586.976     116.299     469.177
  C      586.391     114.144     468.165
  C      586.659     112.841     468.171
  O      585.919     106.281     465.002
  O      583.875     105.605     466.452
  H      587.926     109.702     471.565
  H      583.669     104.906     465.767
  H      585.733     114.622     467.455
  H      586.199     112.176     467.439
  H      588.795     110.653     469.450
  H      585.745     110.453     469.877
  H      586.033     108.050     469.677
  H      587.853     108.236     467.563
  H      587.611     116.820     469.763
  H      585.084     109.509     467.504
  H      586.677     116.790     468.336
  H      586.023     109.031     466.074
  P      587.933     106.642     470.737
  C      587.318     107.595     473.077
  O      586.892     106.860     471.946
  O      589.336     106.554     471.508
  O      587.738     105.432     469.886
  H      589.535     105.618     471.679
  H      586.485     107.645     473.786
  H      587.591     108.624     472.789
  H      588.164     107.101     473.566
  H      581.946     108.633     465.006
  H      582.401     108.169     466.628
  H      581.963     106.946     465.459

 3  4  5  6  7  8  9  10  11  12  13  23  27  28  29  30  32 0
 6-311+G(2d,p)
 ****
 34  35 0
 6-311+G(2d,p)
 ****
 1  2  14  15  16  17  18  19  20  21  22  24  25  26 0
 3-21G
 ****
 31  33  36  37  38  39  40  41  42  43  44  45  46 0
 3-21G
 ****


