%nproc=1
%NoSave
%Mem=1900MB
#P OB98/GEN NMR

erre ene a

0 1
  C     -899.186    -467.688    -439.874
  O     -898.016    -467.488    -439.056
  P     -898.086    -466.418    -437.881
  C     -896.516    -467.475    -436.120
  O     -896.696    -466.454    -437.074
  C     -895.306    -467.224    -435.230
  O     -894.096    -467.319    -436.032
  C     -895.256    -465.838    -434.585
  O     -895.886    -465.654    -433.306
  C     -893.756    -465.648    -434.371
  O     -893.366    -466.298    -433.124
  C     -893.116    -466.360    -435.543
  N     -889.396    -463.300    -437.248
  C     -889.486    -464.075    -436.157
  N     -890.516    -464.862    -435.760
  C     -891.496    -464.816    -436.674
  C     -891.546    -464.060    -437.834
  C     -890.436    -463.274    -438.122
  N     -890.326    -462.486    -439.241
  N     -892.766    -464.260    -438.513
  C     -893.416    -465.080    -437.738
  N     -892.716    -465.464    -436.617
  O     -899.316    -466.450    -437.026
  O     -897.986    -465.029    -438.676
  H     -893.366    -467.237    -433.303
  H     -898.566    -464.370    -438.235
  H     -888.636    -464.071    -435.493
  H     -894.446    -465.440    -437.949
  H     -892.226    -466.936    -435.266
  H     -893.476    -464.606    -434.261
  H     -895.626    -465.068    -435.283
  H     -895.236    -467.992    -434.445
  H     -896.406    -468.438    -436.640
  H     -889.506    -461.908    -439.345
  H     -891.126    -462.397    -439.858
  H     -897.456    -467.564    -435.553
  P     -897.466    -465.319    -433.210
  C     -897.646    -466.622    -430.913
  O     -897.786    -465.397    -431.631
  O     -898.356    -466.141    -434.056
  O     -897.506    -463.757    -433.494
  H     -897.096    -463.195    -432.815
  H     -897.706    -466.410    -429.839
  H     -896.686    -467.090    -431.135
  H     -898.466    -467.301    -431.206
  H     -898.981    -468.434    -440.614
  H     -899.445    -466.769    -440.356
  H     -900.000    -468.010    -439.259

 3  4  5  6  7  8  9  10  11  12  22  25  29  30  31  32 0
 6-311+G(2d,p)
 ****
 33  36  37 0
 6-311+G(2d,p)
 ****
 1  2  13  14  15  16  17  18  19  20  21  23  24  26 0
 3-21G
 ****
 27  28  34  35  38  39  40  41  42  43  44  45  46  47  48 0
 3-21G
 ****


