%nproc=1
%NoSave
%Mem=1900MB
#P OB98/GEN NMR

erre ene a

0 1
  C       70.512     135.443      37.274
  O       70.056     135.294      38.603
  H       71.163     134.605      37.014
  H       69.649     135.437      36.603
  H       71.050     136.386      37.149
  P       71.113     135.573      39.777
  C       72.860     134.129      41.041
  O       71.988     134.233      39.925
  C       73.170     132.664      41.341
  O       71.967     132.034      41.866
  C       73.631     131.852      40.121
  O       74.656     130.946      40.539
  C       72.394     131.057      39.745
  O       72.702     129.856      39.047
  C       71.761     130.827      41.113
  N       68.469     127.146      39.902
  C       69.781     127.115      40.214
  N       70.575     128.142      40.579
  C       69.867     129.280      40.673
  C       68.524     129.466      40.395
  C       67.814     128.329      39.972
  N       66.494     128.363      39.586
  N       68.179     130.794      40.554
  C       69.298     131.401      40.897
  N       70.345     130.527      40.980
  O       70.185     135.561      41.083
  O       71.891     136.839      39.655
  H       71.877     129.351      38.907
  H       69.828     136.455      41.238
  H       70.260     126.142      40.151
  H       69.411     132.462      41.065
  H       72.224     129.995      41.658
  H       71.745     131.669      39.108
  H       73.999     132.469      39.293
  H       73.924     132.625      42.137
  H       72.376     134.575      41.915
  H       66.098     127.522      39.196
  H       66.024     129.254      39.528
  H       73.783     134.678      40.831
  P       76.157     131.507      40.600
  C       77.967     132.281      38.895
  O       76.706     131.653      39.103
  O       76.988     130.267      41.179
  O       76.315     132.722      41.454
  H       77.730     130.584      41.724
  H       78.188     132.299      37.848
  H       78.728     131.733      39.410
  H       77.933     133.283      39.270

 6  7  8  9  10  11  12  13  14  15  25  28  32  33  34  35 0
 6-311+G(2d,p)
 ****
 36  39  40 0
 6-311+G(2d,p)
 ****
 1  2  3  4  5  16  17  18  19  20  21  22  23  24 0
 3-21G
 ****
 26  27  29  30  31  37  38  41  42  43  44  45  46  47 0
 3-21G
 ****
 48 0
 3-21G
 ****


