%nproc=1
%NoSave
%Mem=1900MB
#P OB98/GEN NMR

erre ene a

0 1
  C     -402.129    -335.703    -265.450
  O     -402.708    -336.580    -266.391
  P     -404.191    -337.151    -266.169
  C     -405.390    -335.278    -267.477
  O     -405.152    -335.860    -266.199
  C     -406.563    -335.991    -268.181
  O     -407.656    -336.175    -267.263
  C     -407.126    -335.209    -269.356
  O     -406.290    -335.330    -270.492
  C     -408.497    -335.871    -269.512
  O     -408.403    -337.094    -270.257
  C     -408.880    -336.155    -268.044
  N     -409.829    -335.191    -267.511
  C     -411.159    -335.352    -267.933
  O     -411.456    -336.248    -268.716
  N     -412.106    -334.469    -267.473
  C     -411.743    -333.493    -266.692
  N     -412.729    -332.641    -266.289
  C     -410.352    -333.262    -266.261
  C     -409.459    -334.150    -266.704
  O     -404.357    -338.036    -264.986
  O     -404.519    -337.865    -267.562
  H     -409.304    -337.483    -270.252
  H     -404.037    -338.727    -267.654
  H     -410.105    -332.433    -265.612
  H     -408.413    -334.057    -266.434
  H     -409.310    -337.158    -267.948
  H     -409.213    -335.223    -270.029
  H     -407.257    -334.157    -269.083
  H     -406.205    -336.971    -268.511
  H     -413.663    -332.804    -266.631
  H     -404.486    -335.391    -268.086
  H     -412.553    -331.830    -265.708
  H     -405.599    -334.215    -267.365
  P     -405.609    -334.023    -271.124
  C     -403.248    -335.006    -270.923
  O     -404.109    -333.940    -270.572
  O     -406.398    -332.767    -271.008
  O     -405.404    -334.420    -272.671
  H     -405.669    -333.665    -273.227
  H     -402.212    -334.689    -270.776
  H     -403.393    -335.312    -271.963
  H     -403.440    -335.863    -270.266
  H     -401.144    -335.435    -265.771
  H     -402.074    -336.188    -264.498
  H     -402.730    -334.822    -265.367

 3  4  5  6  7  8  9  10  11  12  13  23  27  28  29  30  32 0
 6-311+G(2d,p)
 ****
 34  35 0
 6-311+G(2d,p)
 ****
 1  2  14  15  16  17  18  19  20  21  22  24  25  26 0
 3-21G
 ****
 31  33  36  37  38  39  40  41  42  43  44  45  46 0
 3-21G
 ****


