%nproc=1
%NoSave
%Mem=1900MB
#P OB98/GEN NMR

erre ene a

0 1
  C      177.328    -971.648      14.190
  O      178.482    -971.993      14.917
  H      176.698    -972.539      14.091
  H      177.599    -971.297      13.189
  H      176.750    -970.868      14.700
  P      179.414    -970.815      15.482
  C      177.935    -970.533      17.581
  O      178.500    -969.913      16.442
  C      177.333    -969.494      18.535
  O      178.408    -968.698      19.100
  C      176.397    -968.526      17.797
  O      175.388    -968.003      18.654
  C      177.335    -967.406      17.383
  O      176.661    -966.168      17.143
  C      178.288    -967.364      18.578
  N      181.452    -963.358      18.629
  C      180.107    -963.398      18.899
  N      179.519    -962.223      19.231
  N      179.392    -964.494      18.830
  C      180.089    -965.574      18.423
  C      181.428    -965.657      18.096
  C      182.222    -964.445      18.216
  O      183.411    -964.340      17.963
  N      181.785    -966.920      17.699
  C      180.661    -967.615      17.786
  N      179.611    -966.846      18.238
  O      179.641    -969.865      14.210
  O      180.721    -971.253      16.083
  H      177.288    -965.565      16.699
  H      180.449    -969.326      14.329
  H      181.966    -962.487      18.736
  H      180.564    -968.669      17.547
  H      177.890    -966.724      19.380
  H      177.830    -967.688      16.456
  H      179.990    -961.343      19.112
  H      175.937    -968.977      16.919
  H      178.493    -962.186      19.127
  H      176.840    -970.000      19.375
  H      178.736    -971.092      18.071
  H      177.181    -971.267      17.284
  P      174.043    -968.862      18.875
  C      174.707    -969.847      21.244
  O      174.320    -970.052      19.893
  O      173.842    -969.612      17.466
  O      172.848    -968.058      19.252
  H      173.027    -969.304      17.027
  H      174.834    -970.794      21.726
  H      173.949    -969.287      21.751
  H      175.629    -969.306      21.273

 6  7  8  9  10  11  12  13  14  15  26  29  33  34 0
 6-311+G(2d,p)
 ****
 36  38  39  40  41 0
 6-311+G(2d,p)
 ****
 1  2  3  4  5  16  17  18  19  20  21  22  23  24  25 0
 3-21G
 ****
 27  28  30  31  32  35  37  42  43  44  45  46  47 0
 3-21G
 ****
 48  49 0
 3-21G
 ****


