%nproc=1
%NoSave
%Mem=1900MB
#P OB98/GEN NMR

erre ene a

0 1
  C     -264.017     203.474    -794.566
  O     -264.898     204.464    -795.063
  H     -263.010     203.896    -794.515
  H     -264.001     202.611    -795.237
  H     -264.324     203.163    -793.565
  P     -266.435     204.030    -795.241
  C     -266.991     204.851    -792.845
  O     -266.995     203.768    -793.758
  C     -267.858     204.526    -791.628
  O     -269.256     204.739    -791.924
  C     -267.730     203.092    -791.133
  O     -266.595     202.937    -790.299
  C     -269.041     202.919    -790.379
  O     -268.973     203.495    -789.056
  C     -270.026     203.697    -791.263
  N     -273.383     199.980    -791.903
  C     -272.968     200.621    -790.754
  N     -273.489     200.158    -789.589
  N     -272.119     201.606    -790.737
  C     -271.657     201.933    -791.966
  C     -272.000     201.389    -793.181
  C     -272.973     200.316    -793.186
  O     -273.429     199.754    -794.180
  N     -271.334     202.005    -794.209
  C     -270.556     202.892    -793.615
  N     -270.703     202.875    -792.251
  O     -266.336     202.555    -795.862
  O     -267.259     204.932    -796.094
  H     -268.154     203.199    -788.622
  H     -267.112     202.400    -796.434
  H     -274.056     199.233    -791.852
  H     -269.877     203.558    -794.123
  H     -270.805     204.193    -790.676
  H     -269.294     201.866    -790.243
  H     -273.868     199.224    -789.514
  H     -267.698     202.389    -791.973
  H     -273.176     200.606    -788.742
  H     -267.588     205.234    -790.836
  H     -267.399     205.741    -793.343
  H     -265.966     205.057    -792.528
  P     -266.044     201.450    -790.053
  C     -265.446     201.302    -792.581
  O     -266.105     200.702    -791.475
  O     -267.223     200.754    -789.221
  O     -264.734     201.375    -789.340
  H     -266.896     199.945    -788.786
  H     -265.576     200.690    -793.449
  H     -264.402     201.398    -792.365
  H     -265.863     202.271    -792.762

 6  7  8  9  10  11  12  13  14  15  26  29  33  34 0
 6-311+G(2d,p)
 ****
 36  38  39  40  41 0
 6-311+G(2d,p)
 ****
 1  2  3  4  5  16  17  18  19  20  21  22  23  24  25 0
 3-21G
 ****
 27  28  30  31  32  35  37  42  43  44  45  46  47 0
 3-21G
 ****
 48  49 0
 3-21G
 ****


