%nproc=1
%NoSave
%Mem=1900MB
#P OB98/GEN NMR

erre ene a

0 1
  C      -61.290     640.042     -81.561
  O      -60.423     638.951     -81.237
  P      -60.854     637.515     -81.813
  C      -59.666     637.823     -84.102
  O      -59.757     637.071     -82.901
  C      -58.204     638.096     -84.457
  O      -57.593     639.061     -83.567
  C      -57.319     636.851     -84.394
  O      -57.487     636.079     -85.576
  C      -55.931     637.468     -84.286
  O      -55.404     637.831     -85.574
  C      -56.182     638.729     -83.436
  N      -52.700     639.757     -79.905
  C      -52.642     639.902     -81.275
  N      -51.495     640.422     -81.771
  N      -53.615     639.578     -82.083
  C      -54.694     639.070     -81.446
  C      -54.882     638.898     -80.090
  C      -53.798     639.266     -79.208
  O      -53.814     639.178     -77.981
  N      -56.140     638.420     -79.821
  C      -56.652     638.177     -81.002
  N      -55.851     638.612     -82.029
  O      -62.157     637.833     -82.679
  O      -61.137     636.509     -80.743
  H      -55.893     638.594     -85.916
  H      -62.943     637.466     -82.238
  H      -51.915     640.023     -79.327
  H      -57.614     637.714     -81.185
  H      -55.616     639.593     -83.821
  H      -55.214     636.767     -83.838
  H      -50.710     640.702     -81.211
  H      -57.546     636.273     -83.499
  H      -51.438     640.548     -82.783
  H      -58.179     638.512     -85.473
  H      -60.206     638.765     -83.992
  H      -60.162     637.263     -84.902
  P      -57.422     634.485     -85.438
  C      -59.878     633.663     -85.246
  O      -58.762     633.892     -86.079
  O      -57.615     634.246     -83.858
  O      -56.150     633.872     -85.919
  H      -56.973     633.577     -83.548
  H      -60.800     633.780     -85.836
  H      -59.910     634.364     -84.401
  H      -59.840     632.642     -84.855
  H      -60.907     640.943     -81.128
  H      -62.268     639.848     -81.173
  H      -61.343     640.152     -82.624

 3  4  5  6  7  8  9  10  11  12  23  26  30  31 0
 6-311+G(2d,p)
 ****
 33  35  36  37  38 0
 6-311+G(2d,p)
 ****
 1  2  13  14  15  16  17  18  19  20  21  22  24  25 0
 3-21G
 ****
 27  28  29  32  34  39  40  41  42  43  44  45  46  47  48  49 0
 3-21G
 ****


