%nproc=1
%NoSave
%Mem=1900MB
#P OB98/GEN NMR

erre ene a

0 1
  C     -173.005    -412.104      35.566
  O     -173.427    -411.478      36.775
  P     -174.466    -410.260      36.684
  C     -176.754    -411.268      37.548
  O     -175.945    -410.823      36.482
  C     -177.153    -412.732      37.306
  O     -175.978    -413.569      37.239
  C     -178.049    -413.304      38.400
  O     -179.417    -413.030      38.165
  C     -177.706    -414.779      38.346
  O     -178.377    -415.407      37.237
  C     -176.182    -414.729      38.098
  N     -175.288    -414.612      39.270
  C     -174.775    -415.762      39.867
  O     -175.013    -416.903      39.485
  N     -173.944    -415.564      40.936
  C     -173.442    -414.367      41.357
  O     -172.651    -414.255      42.284
  C     -173.896    -413.195      40.602
  C     -174.790    -413.366      39.622
  O     -174.123    -409.573      35.283
  O     -174.376    -409.289      37.821
  H     -177.886    -415.168      36.431
  H     -173.784    -408.668      35.422
  H     -173.620    -416.382      41.423
  H     -173.488    -412.230      40.868
  H     -175.132    -412.502      39.058
  H     -175.852    -415.612      37.536
  H     -178.051    -415.298      39.238
  H     -177.737    -412.923      39.378
  H     -177.666    -412.795      36.336
  H     -177.646    -410.649      37.643
  H     -176.204    -411.177      38.492
  P     -180.088    -411.717      38.791
  C     -180.696    -410.827      36.464
  O     -179.970    -410.591      37.656
  O     -179.611    -411.320      40.145
  O     -181.655    -412.055      38.780
  H     -181.943    -412.403      39.656
  H     -180.662    -409.923      35.848
  H     -181.740    -411.062      36.693
  H     -180.242    -411.650      35.909
  H     -172.318    -412.892      35.793
  H     -172.525    -411.382      34.939
  H     -173.856    -412.508      35.058

 3  4  5  6  7  8  9  10  11  12  13  23  28  29  30  31  32 0
 6-311+G(2d,p)
 ****
 33  34 0
 6-311+G(2d,p)
 ****
 1  2  14  15  16  17  18  19  20  21  22  24  25  26  27 0
 3-21G
 ****
 35  36  37  38  39  40  41  42  43  44  45 0
 3-21G
 ****


