%nproc=1
%NoSave
%Mem=1900MB
#P OB98/GEN NMR

erre ene a

0 1
  C     -285.893    -185.035     -24.528
  O     -285.592    -184.674     -25.860
  H     -286.940    -184.790     -24.328
  H     -285.267    -184.471     -23.831
  H     -285.750    -186.108     -24.378
  P     -284.106    -184.928     -26.407
  C     -283.214    -182.530     -25.990
  O     -283.200    -183.887     -25.577
  C     -281.809    -181.935     -25.901
  O     -281.463    -181.608     -24.536
  C     -280.691    -182.862     -26.370
  O     -280.630    -183.020     -27.776
  C     -279.488    -182.115     -25.818
  O     -279.210    -180.971     -26.642
  C     -280.015    -181.697     -24.425
  N     -279.635    -182.638     -23.371
  C     -278.413    -182.404     -22.732
  O     -277.705    -181.454     -23.059
  N     -278.001    -183.277     -21.751
  C     -278.735    -184.302     -21.453
  N     -278.277    -185.133     -20.474
  C     -280.022    -184.598     -22.118
  C     -280.407    -183.736     -23.052
  O     -283.935    -184.886     -27.891
  O     -283.671    -186.322     -25.755
  H     -280.045    -180.476     -26.732
  H     -282.758    -186.533     -26.069
  H     -280.577    -185.488     -21.852
  H     -281.336    -183.890     -23.591
  H     -279.649    -180.696     -24.155
  H     -278.581    -182.723     -25.792
  H     -280.755    -183.837     -25.867
  H     -281.815    -180.994     -26.468
  H     -277.393    -184.908     -20.043
  H     -283.913    -181.984     -25.348
  H     -278.743    -186.003     -20.236
  H     -283.555    -182.459     -27.029
  P     -280.405    -184.516     -28.330
  C     -278.060    -184.411     -29.486
  O     -278.819    -184.755     -28.338
  O     -280.787    -184.386     -29.878
  O     -281.188    -185.582     -27.626
  H     -281.702    -184.698     -30.034
  H     -277.029    -184.638     -29.313
  H     -278.167    -183.365     -29.684
  H     -278.412    -184.971     -30.327

 6  7  8  9  10  11  12  13  14  15  16  26  30  31  32  33  35 0
 6-311+G(2d,p)
 ****
 37  38 0
 6-311+G(2d,p)
 ****
 1  2  3  4  5  17  18  19  20  21  22  23  24  25 0
 3-21G
 ****
 27  28  29  34  36  39  40  41  42  43  44  45  46 0
 3-21G
 ****


