%nproc=1
%NoSave
%Mem=1900MB
#P OB98/GEN NMR

erre ene a

0 1
  C      -79.076     145.806     -86.159
  O      -79.200     146.067     -87.544
  P      -79.169     147.564     -88.111
  C      -81.582     147.333     -88.939
  O      -80.676     148.105     -88.163
  C      -82.568     148.223     -89.697
  O      -83.457     148.872     -88.750
  C      -81.901     149.318     -90.543
  O      -82.666     149.445     -91.748
  C      -82.056     150.556     -89.681
  O      -81.971     151.758     -90.437
  C      -83.414     150.285     -89.030
  N      -83.621     151.075     -87.823
  C      -84.270     152.302     -87.972
  O      -84.521     152.735     -89.099
  N      -84.601     153.010     -86.842
  C      -84.152     152.618     -85.690
  N      -84.560     153.311     -84.590
  C      -83.252     151.458     -85.530
  C      -83.066     150.714     -86.618
  O      -78.399     147.747     -89.378
  O      -78.521     148.423     -86.921
  H      -77.764     148.933     -87.272
  H      -82.799     151.873     -90.949
  H      -82.803     151.246     -84.569
  H      -82.444     149.826     -86.595
  H      -84.229     150.499     -89.737
  H      -81.263     150.578     -88.923
  H      -80.862     149.086     -90.795
  H      -83.188     147.580     -90.334
  H      -85.208     154.074     -84.733
  H      -82.139     146.680     -88.264
  H      -84.530     152.903     -83.652
  H      -81.026     146.694     -89.636
  P      -81.874     149.580     -93.143
  C      -81.254     152.077     -92.803
  O      -80.796     150.751     -92.986
  O      -82.984     150.269     -94.078
  O      -81.407     148.304     -93.767
  H      -82.796     150.052     -95.010
  H      -80.386     152.744     -92.782
  H      -81.781     152.163     -91.850
  H      -81.905     152.376     -93.623
  H      -79.121     144.750     -85.990
  H      -79.874     146.286     -85.633
  H      -78.139     146.184     -85.807

 3  4  5  6  7  8  9  10  11  12  13  24  27  28  29  30  32 0
 6-311+G(2d,p)
 ****
 34  35 0
 6-311+G(2d,p)
 ****
 1  2  14  15  16  17  18  19  20  21  22  23  25  26 0
 3-21G
 ****
 31  33  36  37  38  39  40  41  42  43  44  45  46 0
 3-21G
 ****


