%nproc=1
%NoSave
%Mem=1900MB
#P OB98/GEN NMR

erre ene a

0 1
  C      240.864      51.089     -23.623
  O      240.227      50.333     -24.633
  H      240.528      50.727     -22.649
  H      240.588      52.141     -23.724
  H      241.952      50.981     -23.684
  P      240.818      50.468     -26.121
  C      240.523      52.361     -27.874
  O      240.723      52.025     -26.508
  C      241.126      53.728     -28.176
  O      242.414      53.863     -27.540
  C      241.352      54.005     -29.661
  O      240.164      54.469     -30.292
  C      242.398      55.105     -29.588
  O      241.764      56.358     -29.243
  C      243.281      54.628     -28.426
  N      248.181      53.580     -27.629
  C      247.380      54.556     -27.067
  N      247.972      55.374     -26.166
  N      246.115      54.720     -27.356
  C      245.664      53.845     -28.289
  C      246.361      52.841     -28.925
  C      247.754      52.661     -28.581
  O      248.504      51.804     -29.044
  N      245.569      52.159     -29.809
  C      244.400      52.764     -29.728
  N      244.406      53.796     -28.820
  O      239.677      49.783     -27.015
  O      242.143      49.819     -26.341
  H      242.465      57.032     -29.212
  H      239.969      48.886     -27.266
  H      249.150      53.504     -27.378
  H      243.518      52.491     -30.293
  H      243.688      55.462     -27.847
  H      242.911      55.262     -30.540
  H      248.947      55.317     -25.915
  H      241.770      53.130     -30.177
  H      247.402      56.095     -25.739
  H      240.467      54.491     -27.738
  H      239.448      52.384     -28.081
  H      240.994      51.597     -28.502
  P      239.845      53.955     -31.777
  C      240.488      54.796     -34.148
  O      240.832      54.747     -32.770
  O      238.413      54.608     -32.073
  O      239.812      52.475     -31.948
  H      237.731      53.909     -32.118
  H      241.231      55.352     -34.681
  H      239.536      55.272     -34.261
  H      240.438      53.801     -34.539

 6  7  8  9  10  11  12  13  14  15  26  29  33  34 0
 6-311+G(2d,p)
 ****
 36  38  39  40  41 0
 6-311+G(2d,p)
 ****
 1  2  3  4  5  16  17  18  19  20  21  22  23  24  25 0
 3-21G
 ****
 27  28  30  31  32  35  37  42  43  44  45  46  47 0
 3-21G
 ****
 48  49 0
 3-21G
 ****


