%nproc=1
%NoSave
%Mem=1900MB
#P OB98/GEN NMR

erre ene a

0 1
  C      273.703     -25.887      75.282
  O      273.180     -24.808      76.024
  P      273.172     -23.320      75.436
  C      275.125     -22.673      76.988
  O      273.797     -22.369      76.572
  C      275.339     -22.236      78.442
  O      275.210     -20.783      78.518
  C      274.310     -22.854      79.410
  O      274.884     -23.516      80.538
  C      273.406     -21.676      79.736
  O      272.672     -21.829      80.936
  C      274.389     -20.503      79.669
  N      273.713     -19.211      79.572
  C      273.407     -18.564      80.765
  O      273.676     -18.998      81.881
  N      272.710     -17.393      80.650
  C      272.196     -16.878      79.498
  O      271.494     -15.876      79.479
  C      272.518     -17.626      78.272
  C      273.269     -18.727      78.358
  O      271.863     -22.851      74.896
  O      274.348     -23.352      74.349
  H      273.305     -22.037      81.649
  H      275.226     -23.577      74.702
  H      272.481     -16.913      81.507
  H      272.116     -17.247      77.345
  H      273.521     -19.300      77.471
  H      275.047     -20.482      80.539
  H      272.673     -21.583      78.924
  H      273.723     -23.637      78.914
  H      276.359     -22.508      78.725
  H      275.825     -22.135      76.346
  H      275.316     -23.743      76.863
  P      274.716     -25.073      80.875
  C      273.119     -25.067      82.924
  O      274.438     -25.218      82.443
  O      275.792     -25.958      80.339
  O      273.302     -25.444      80.219
  H      273.303     -26.383      79.956
  H      273.160     -24.695      83.953
  H      272.622     -26.040      82.927
  H      272.544     -24.363      82.317
  H      273.613     -26.788      75.852
  H      274.735     -25.704      75.065
  H      273.158     -25.988      74.367

 3  4  5  6  7  8  9  10  11  12  13  23  28  29  30  31  32 0
 6-311+G(2d,p)
 ****
 33  34 0
 6-311+G(2d,p)
 ****
 1  2  14  15  16  17  18  19  20  21  22  24  25  26  27 0
 3-21G
 ****
 35  36  37  38  39  40  41  42  43  44  45 0
 3-21G
 ****


