%nproc=1
%NoSave
%Mem=1900MB
#P OB98/GEN NMR

erre ene a

0 1
  C      162.018    -224.924    -147.324
  O      161.356    -225.859    -146.461
  P      160.030    -225.365    -145.703
  C      157.952    -226.024    -147.122
  O      158.832    -226.375    -146.058
  C      156.896    -227.118    -147.360
  O      157.509    -228.331    -147.872
  C      156.136    -227.520    -146.083
  O      154.812    -227.927    -146.462
  C      156.910    -228.734    -145.609
  O      156.138    -229.520    -144.693
  C      157.227    -229.404    -146.945
  N      158.642    -234.033    -145.526
  C      157.400    -233.414    -145.446
  N      156.394    -234.156    -144.948
  N      157.184    -232.181    -145.826
  C      158.291    -231.582    -146.339
  C      159.564    -232.079    -146.465
  C      159.797    -233.436    -146.022
  O      160.874    -234.044    -146.053
  N      160.417    -231.157    -147.017
  C      159.658    -230.092    -147.210
  N      158.354    -230.313    -146.857
  O      159.640    -224.030    -146.512
  O      160.233    -225.085    -144.250
  H      156.635    -230.352    -144.535
  H      159.822    -223.245    -145.948
  H      158.756    -234.985    -145.207
  H      160.002    -229.146    -147.611
  H      156.373    -229.976    -147.341
  H      157.825    -228.413    -145.095
  H      156.481    -235.126    -144.682
  H      156.065    -226.735    -145.324
  H      155.468    -233.734    -144.910
  H      156.190    -226.757    -148.114
  H      158.524    -225.869    -148.042
  H      157.482    -225.063    -146.895
  P      153.586    -227.143    -145.789
  C      154.144    -224.993    -147.135
  O      153.185    -225.979    -146.817
  O      154.271    -226.349    -144.569
  O      152.463    -228.014    -145.327
  H      153.615    -226.166    -143.876
  H      154.564    -225.199    -148.125
  H      154.958    -224.959    -146.400
  H      153.655    -224.008    -147.142
  H      162.879    -225.387    -147.758
  H      162.321    -224.068    -146.757
  H      161.348    -224.619    -148.100

 3  4  5  6  7  8  9  10  11  12  23  26  30  31 0
 6-311+G(2d,p)
 ****
 33  35  36  37  38 0
 6-311+G(2d,p)
 ****
 1  2  13  14  15  16  17  18  19  20  21  22  24  25 0
 3-21G
 ****
 27  28  29  32  34  39  40  41  42  43  44  45  46  47  48  49 0
 3-21G
 ****


