%nproc=1
%NoSave
%Mem=1900MB
#P OB98/GEN NMR

erre ene a

0 1
  C     -284.238      37.586      40.815
  O     -284.065      36.380      41.532
  P     -284.470      36.261      43.078
  C     -282.204      37.146      43.918
  O     -283.604      37.377      43.843
  C     -281.721      37.110      45.366
  O     -280.412      36.481      45.429
  C     -281.602      38.487      46.036
  O     -281.931      38.295      47.415
  C     -280.128      38.799      45.878
  O     -279.680      39.803      46.783
  C     -279.514      37.408      46.075
  N     -278.157      37.324      45.544
  C     -277.292      36.416      46.162
  O     -277.663      35.784      47.156
  N     -276.017      36.280      45.680
  C     -275.606      37.063      44.732
  N     -274.332      36.879      44.287
  C     -276.444      38.120      44.134
  C     -277.703      38.188      44.577
  O     -284.375      34.889      43.655
  O     -285.946      36.875      43.131
  H     -280.203      40.620      46.623
  H     -286.606      36.221      42.789
  H     -276.043      38.787      43.388
  H     -278.390      38.928      44.199
  H     -279.487      37.145      47.142
  H     -279.930      39.159      44.860
  H     -282.246      39.249      45.586
  H     -282.413      36.476      45.938
  H     -273.798      36.134      44.713
  H     -281.699      37.965      43.397
  H     -273.944      37.376      43.500
  H     -281.950      36.215      43.398
  P     -282.517      39.491      48.307
  C     -280.505      39.674      49.877
  O     -281.264      40.314      48.869
  O     -283.515      39.080      49.340
  O     -283.164      40.499      47.240
  H     -283.764      41.117      47.701
  H     -279.543      40.184      49.976
  H     -280.324      38.622      49.627
  H     -281.040      39.730      50.830
  H     -283.907      37.452      39.806
  H     -283.665      38.362      41.278
  H     -285.273      37.857      40.818

 3  4  5  6  7  8  9  10  11  12  13  23  27  28  29  30  32 0
 6-311+G(2d,p)
 ****
 34  35 0
 6-311+G(2d,p)
 ****
 1  2  14  15  16  17  18  19  20  21  22  24  25  26 0
 3-21G
 ****
 31  33  36  37  38  39  40  41  42  43  44  45  46 0
 3-21G
 ****


