%nproc=1
%NoSave
%Mem=1900MB
#P OB98/GEN NMR

erre ene a

0 1
  C     -145.423      12.292     610.583
  O     -145.745      13.599     610.050
  P     -146.561      14.597     611.010
  C     -148.141      16.173     609.635
  O     -146.838      15.902     610.122
  C     -148.282      17.667     609.315
  O     -148.163      18.454     610.526
  C     -147.239      18.196     608.364
  O     -147.474      17.791     607.026
  C     -147.362      19.696     608.605
  O     -148.484      20.225     607.864
  C     -147.669      19.757     610.127
  N     -146.511      20.154     610.917
  C     -146.520      21.465     611.379
  O     -147.428      22.260     611.138
  N     -145.441      21.826     612.149
  C     -144.365      21.062     612.455
  O     -143.430      21.428     613.141
  C     -144.386      19.695     611.884
  C     -145.445      19.309     611.161
  O     -145.410      15.030     612.034
  O     -147.752      13.968     611.635
  H     -144.532      15.113     611.615
  H     -148.318      20.018     606.917
  H     -145.442      22.775     612.512
  H     -143.540      19.057     612.084
  H     -145.473      18.300     610.729
  H     -148.484      20.460     610.321
  H     -146.474      20.252     608.301
  H     -146.238      17.860     608.682
  H     -149.293      17.818     608.897
  H     -148.889      15.885     610.375
  H     -148.316      15.551     608.752
  P     -146.314      16.942     606.303
  C     -146.150      17.965     603.890
  O     -146.663      16.944     604.743
  O     -146.680      15.448     606.765
  O     -144.926      17.375     606.654
  H     -147.643      15.261     606.718
  H     -146.189      17.612     602.857
  H     -145.124      18.205     604.149
  H     -146.775      18.853     603.984
  H     -144.883      11.731     609.849
  H     -146.327      11.776     610.833
  H     -144.821      12.403     611.461

 3  4  5  6  7  8  9  10  11  12  13  24  28  29  30  31  32 0
 6-311+G(2d,p)
 ****
 33  34 0
 6-311+G(2d,p)
 ****
 1  2  14  15  16  17  18  19  20  21  22  23  25  26  27 0
 3-21G
 ****
 35  36  37  38  39  40  41  42  43  44  45 0
 3-21G
 ****


