%nproc=1
%NoSave
%Mem=1900MB
#P OB98/GEN NMR

erre ene a

0 1
  C      585.605     444.817    1046.833
  O      584.824     444.836    1048.023
  P      583.965     446.181    1048.296
  C      585.549     447.745    1049.674
  O      584.506     446.786    1049.681
  C      585.137     448.981    1050.451
  O      584.058     449.677    1049.741
  C      584.590     448.687    1051.871
  O      585.656     448.535    1052.775
  C      583.749     449.926    1052.125
  O      584.554     451.039    1052.545
  C      583.114     450.197    1050.733
  N      578.331     450.136    1052.364
  C      579.431     450.761    1052.915
  N      579.235     451.537    1054.020
  N      580.641     450.658    1052.398
  C      580.710     449.860    1051.312
  C      579.673     449.170    1050.689
  C      578.346     449.340    1051.227
  O      577.305     448.895    1050.725
  N      580.112     448.461    1049.617
  C      581.410     448.727    1049.555
  N      581.827     449.590    1050.546
  O      582.508     445.608    1048.654
  O      583.938     447.158    1047.144
  H      584.037     451.866    1052.488
  H      581.918     445.654    1047.857
  H      577.420     450.285    1052.780
  H      582.078     448.337    1048.806
  H      583.021     451.264    1050.543
  H      582.988     449.771    1052.925
  H      578.345     451.621    1054.468
  H      583.958     447.800    1051.861
  H      580.044     452.002    1054.413
  H      585.982     449.672    1050.515
  H      585.789     448.020    1048.652
  H      586.465     447.295    1050.139
  P      586.197     447.044    1053.061
  C      584.087     446.191    1054.289
  O      585.457     446.519    1054.389
  O      587.699     447.286    1053.522
  O      586.133     446.143    1051.883
  H      588.281     446.535    1053.203
  H      583.868     445.390    1055.035
  H      583.803     445.798    1053.290
  H      583.474     447.048    1054.541
  H      586.124     443.884    1046.762
  H      586.314     445.618    1046.859
  H      584.964     444.934    1045.984

 3  4  5  6  7  8  9  10  11  12  23  26  30  31 0
 6-311+G(2d,p)
 ****
 33  35  36  37  38 0
 6-311+G(2d,p)
 ****
 1  2  13  14  15  16  17  18  19  20  21  22  24  25 0
 3-21G
 ****
 27  28  29  32  34  39  40  41  42  43  44  45  46  47  48  49 0
 3-21G
 ****


