%nproc=1
%NoSave
%Mem=1900MB
#P OB98/GEN NMR

erre ene a

0 1
  C     -103.876    -189.846    -316.535
  O     -104.167    -189.280    -317.816
  P     -104.251    -187.718    -318.130
  C     -101.680    -187.188    -318.292
  O     -102.942    -187.289    -318.940
  C     -100.578    -186.772    -319.285
  O     -100.379    -187.858    -320.244
  C     -100.954    -185.522    -320.093
  O      -99.881    -184.599    -320.252
  C     -101.565    -186.103    -321.358
  O     -101.597    -185.188    -322.439
  C     -100.731    -187.365    -321.562
  N     -102.757    -188.724    -326.050
  C     -102.280    -187.491    -325.644
  N     -102.358    -186.483    -326.537
  N     -101.780    -187.266    -324.458
  C     -101.823    -188.342    -323.637
  C     -102.294    -189.604    -323.920
  C     -102.801    -189.852    -325.248
  O     -103.220    -190.933    -325.673
  N     -102.172    -190.437    -322.833
  C     -101.655    -189.672    -321.887
  N     -101.420    -188.391    -322.333
  O     -104.653    -186.841    -316.988
  O     -105.411    -187.619    -319.248
  H     -102.127    -185.585    -323.161
  H     -105.858    -186.755    -319.107
  H     -103.114    -188.841    -326.987
  H     -101.417    -189.997    -320.878
  H      -99.802    -187.163    -322.098
  H     -102.608    -186.363    -321.132
  H     -102.843    -186.553    -327.420
  H     -101.717    -184.931    -319.562
  H     -102.215    -185.543    -326.167
  H      -99.641    -186.629    -318.730
  H     -101.465    -188.185    -317.896
  H     -101.726    -186.502    -317.448
  P      -99.911    -182.999    -320.193
  C     -100.914    -182.859    -317.834
  O      -99.811    -182.542    -318.661
  O     -101.415    -182.602    -320.583
  O      -98.943    -182.329    -321.112
  H     -101.411    -182.067    -321.403
  H     -100.844    -182.270    -316.912
  H     -100.896    -183.921    -317.578
  H     -101.858    -182.614    -318.340
  H     -103.883    -190.914    -316.607
  H     -104.617    -189.532    -315.830
  H     -102.911    -189.516    -316.210

 3  4  5  6  7  8  9  10  11  12  23  26  30  31 0
 6-311+G(2d,p)
 ****
 33  35  36  37  38 0
 6-311+G(2d,p)
 ****
 1  2  13  14  15  16  17  18  19  20  21  22  24  25 0
 3-21G
 ****
 27  28  29  32  34  39  40  41  42  43  44  45  46  47  48  49 0
 3-21G
 ****


