%nproc=1
%NoSave
%Mem=1900MB
#P OB98/GEN NMR

erre ene a

0 1
  C      778.779     196.602    -861.105
  O      777.597     197.161    -860.583
  H      779.127     197.224    -861.942
  H      778.584     195.588    -861.471
  H      779.571     196.577    -860.341
  P      777.036     196.532    -859.212
  C      775.843     194.258    -858.829
  O      775.955     195.416    -859.636
  C      775.118     193.155    -859.592
  O      775.881     192.747    -860.744
  C      774.860     191.886    -858.779
  O      773.697     192.017    -857.956
  C      774.641     190.881    -859.890
  O      773.329     191.037    -860.445
  C      775.705     191.314    -860.926
  N      779.248     188.486    -863.208
  C      778.049     188.964    -863.700
  N      777.731     188.653    -864.960
  N      777.222     189.704    -863.004
  C      777.646     189.937    -861.723
  C      778.812     189.513    -861.129
  C      779.719     188.722    -861.925
  O      780.811     188.274    -861.553
  N      778.906     189.949    -859.847
  C      777.790     190.637    -859.650
  N      776.987     190.637    -860.762
  O      776.139     197.706    -858.601
  O      778.080     196.074    -858.245
  H      772.707     191.108    -859.691
  H      776.221     197.700    -857.619
  H      779.834     187.922    -863.783
  H      777.513     191.126    -858.714
  H      775.381     191.137    -861.950
  H      774.726     189.849    -859.554
  H      778.313     188.047    -865.544
  H      775.747     191.604    -858.180
  H      776.873     189.024    -865.348
  H      774.167     193.563    -859.972
  H      775.281     194.493    -857.906
  H      776.843     193.920    -858.551
  P      773.466     190.900    -856.827
  C      772.929     188.340    -856.855
  O      773.228     189.514    -857.609
  O      772.003     191.254    -856.261
  O      774.508     190.867    -855.748
  H      771.907     190.897    -855.356
  H      772.800     187.512    -857.520
  H      772.028     188.493    -856.298
  H      773.734     188.134    -856.181

 6  7  8  9  10  11  12  13  14  15  26  29  33  34 0
 6-311+G(2d,p)
 ****
 36  38  39  40  41 0
 6-311+G(2d,p)
 ****
 1  2  3  4  5  16  17  18  19  20  21  22  23  24  25 0
 3-21G
 ****
 27  28  30  31  32  35  37  42  43  44  45  46  47 0
 3-21G
 ****
 48  49 0
 3-21G
 ****


