%nproc=1
%NoSave
%Mem=1900MB
#P OB98/GEN NMR

erre ene a

0 1
  C      -90.852    -140.690    -361.499
  O      -90.606    -139.406    -360.927
  P      -91.329    -138.122    -361.546
  C      -89.202    -137.238    -362.701
  O      -90.244    -136.966    -361.766
  C      -87.965    -136.376    -362.409
  O      -88.361    -135.032    -362.016
  C      -87.109    -136.945    -361.263
  O      -85.721    -136.659    -361.484
  C      -87.564    -136.130    -360.064
  O      -86.594    -136.147    -359.018
  C      -87.786    -134.763    -360.715
  N      -87.959    -130.924    -357.330
  C      -86.920    -131.510    -357.973
  N      -86.955    -132.512    -358.877
  C      -88.222    -132.901    -359.111
  C      -89.380    -132.389    -358.545
  C      -89.215    -131.358    -357.601
  N      -90.267    -130.778    -356.936
  N      -90.501    -133.043    -359.026
  C      -90.015    -133.962    -359.845
  N      -88.655    -133.889    -359.954
  O      -92.580    -137.684    -360.853
  O      -91.648    -138.587    -363.051
  H      -87.014    -135.788    -358.218
  H      -92.543    -138.289    -363.303
  H      -85.939    -131.126    -357.717
  H      -90.604    -134.702    -360.363
  H      -86.838    -134.231    -360.880
  H      -88.500    -136.537    -359.673
  H      -87.231    -138.022    -361.098
  H      -87.371    -136.280    -363.320
  H      -89.559    -137.044    -363.715
  H      -90.043    -130.127    -356.187
  H      -91.185    -131.194    -357.013
  H      -88.963    -138.304    -362.661
  P      -84.993    -137.537    -362.623
  C      -83.232    -138.968    -361.320
  O      -83.508    -137.815    -362.078
  O      -85.091    -136.937    -363.989
  O      -85.740    -138.947    -362.483
  H      -85.780    -139.298    -361.580
  H      -82.156    -139.038    -361.158
  H      -83.567    -139.867    -361.840
  H      -83.728    -138.901    -360.343
  H      -90.292    -141.431    -360.967
  H      -90.552    -140.686    -362.526
  H      -91.896    -140.916    -361.433

 3  4  5  6  7  8  9  10  11  12  22  25  29  30  31  32 0
 6-311+G(2d,p)
 ****
 33  36  37 0
 6-311+G(2d,p)
 ****
 1  2  13  14  15  16  17  18  19  20  21  23  24  26 0
 3-21G
 ****
 27  28  34  35  38  39  40  41  42  43  44  45  46  47  48 0
 3-21G
 ****


