%nproc=1
%NoSave
%Mem=1900MB
#P OB98/GEN NMR

erre ene a

0 1
  C     -194.618     259.965     279.943
  O     -194.574     259.459     281.263
  H     -193.735     259.613     279.403
  H     -194.605     261.058     279.962
  H     -195.514     259.611     279.426
  P     -195.872     259.713     282.175
  C     -197.097     257.450     281.647
  O     -196.405     258.256     282.583
  C     -197.900     256.362     282.360
  O     -198.820     255.766     281.412
  C     -197.035     255.240     282.940
  O     -197.629     254.797     284.163
  C     -197.146     254.138     281.899
  O     -196.870     252.852     282.444
  C     -198.586     254.342     281.401
  N     -198.804     253.771     280.074
  C     -199.003     252.389     280.011
  O     -198.976     251.711     281.038
  N     -199.185     251.799     278.786
  C     -199.108     252.518     277.709
  N     -199.273     251.870     276.525
  C     -198.857     253.972     277.724
  C     -198.724     254.529     278.928
  O     -196.938     260.220     281.094
  O     -195.652     260.654     283.313
  H     -197.269     252.799     283.338
  H     -196.940     259.693     280.278
  H     -198.789     254.526     276.800
  H     -198.545     255.591     279.033
  H     -199.301     253.883     282.096
  H     -196.436     254.318     281.084
  H     -196.002     255.551     283.120
  H     -198.508     256.833     283.141
  H     -199.418     250.869     276.558
  H     -196.392     256.984     280.951
  H     -199.179     252.317     275.622
  H     -197.763     258.099     281.070
  P     -197.261     255.537     285.532
  C     -199.130     257.248     286.051
  O     -198.610     255.945     286.293
  O     -196.236     256.616     285.430
  O     -196.707     254.333     286.445
  H     -195.931     254.664     286.938
  H     -200.026     257.385     286.619
  H     -199.348     257.357     285.009
  H     -198.407     257.981     286.343

 6  7  8  9  10  11  12  13  14  15  16  26  30  31  32  33  35 0
 6-311+G(2d,p)
 ****
 37  38 0
 6-311+G(2d,p)
 ****
 1  2  3  4  5  17  18  19  20  21  22  23  24  25 0
 3-21G
 ****
 27  28  29  34  36  39  40  41  42  43  44  45  46 0
 3-21G
 ****


