%nproc=1
%NoSave
%Mem=1900MB
#P OB98/GEN NMR

erre ene a

0 1
  C      639.927     518.665    1558.943
  O      639.287     519.911    1559.076
  H      640.710     518.590    1559.708
  H      640.403     518.574    1557.965
  H      639.219     517.842    1559.086
  P      638.129     520.299    1558.018
  C      637.056     522.313    1559.254
  O      636.933     520.940    1558.858
  C      635.907     522.719    1560.150
  O      634.697     522.778    1559.343
  C      635.651     521.714    1561.318
  O      635.640     522.347    1562.606
  C      634.427     520.964    1560.844
  O      633.659     520.390    1561.914
  C      633.664     521.985    1560.001
  N      632.784     521.391    1558.995
  C      631.435     521.228    1559.342
  O      630.946     521.560    1560.441
  N      630.650     520.674    1558.391
  C      631.041     520.228    1557.123
  O      630.291     519.741    1556.343
  C      632.481     520.399    1556.855
  C      633.288     520.969    1557.773
  O      637.727     519.196    1557.088
  O      638.737     521.552    1557.228
  H      632.902     519.949    1561.505
  H      639.021     521.265    1556.345
  H      629.691     520.591    1558.621
  H      632.839     520.085    1555.886
  H      634.341     521.105    1557.567
  H      633.087     522.655    1560.609
  H      634.753     520.119    1560.205
  H      636.495     521.018    1561.390
  H      636.106     523.737    1560.547
  H      637.072     522.918    1558.333
  H      638.006     522.440    1559.773
  P      636.919     522.495    1563.563
  C      637.331     525.107    1563.509
  O      637.719     523.804    1563.105
  O      637.712     521.257    1563.827
  O      636.237     522.967    1564.963
  H      636.822     522.597    1565.661
  H      638.003     525.826    1563.089
  H      637.360     525.173    1564.577
  H      636.337     525.305    1563.167

 6  7  8  9  10  11  12  13  14  15  16  26  31  32  33  34  35 0
 6-311+G(2d,p)
 ****
 36  37 0
 6-311+G(2d,p)
 ****
 1  2  3  4  5  17  18  19  20  21  22  23  24  25 0
 3-21G
 ****
 27  28  29  30  38  39  40  41  42  43  44  45 0
 3-21G
 ****


