%nproc=1
%NoSave
%Mem=1900MB
#P OB98/GEN NMR

erre ene a

0 1
  C     -127.010    -296.352     547.924
  O     -128.245    -295.719     547.645
  H     -126.332    -295.617     548.366
  H     -126.567    -296.731     546.998
  H     -127.154    -297.173     548.633
  P     -129.443    -296.658     547.150
  C     -129.816    -295.303     544.929
  O     -129.505    -296.547     545.547
  C     -129.882    -295.475     543.415
  O     -128.656    -296.032     542.896
  C     -130.948    -296.453     542.952
  O     -132.256    -295.946     543.104
  C     -130.528    -296.651     541.503
  O     -130.956    -295.554     540.683
  C     -128.983    -296.669     541.636
  N     -128.432    -298.012     541.545
  C     -127.032    -298.102     541.580
  O     -126.348    -297.085     541.690
  N     -126.448    -299.340     541.456
  C     -127.191    -300.396     541.340
  N     -126.552    -301.588     541.211
  C     -128.667    -300.347     541.325
  C     -129.215    -299.138     541.426
  O     -130.741    -295.842     547.609
  O     -129.393    -298.069     547.640
  H     -130.622    -295.740     539.781
  H     -130.755    -294.923     547.297
  H     -129.248    -301.257     541.234
  H     -130.291    -299.014     541.423
  H     -128.527    -296.058     540.843
  H     -130.960    -297.555     541.070
  H     -130.832    -297.413     543.473
  H     -130.026    -294.483     542.964
  H     -125.539    -301.580     541.205
  H     -129.079    -294.538     545.200
  H     -127.024    -302.473     541.081
  H     -130.788    -294.977     545.317
  P     -133.527    -296.920     542.981
  C     -134.341    -295.543     540.968
  O     -134.009    -296.840     541.452
  O     -134.605    -296.686     543.986
  O     -132.876    -298.384     543.055
  H     -132.228    -298.575     542.352
  H     -134.646    -295.612     539.945
  H     -133.486    -294.905     541.043
  H     -135.141    -295.138     541.552

 6  7  8  9  10  11  12  13  14  15  16  26  30  31  32  33  35 0
 6-311+G(2d,p)
 ****
 37  38 0
 6-311+G(2d,p)
 ****
 1  2  3  4  5  17  18  19  20  21  22  23  24  25 0
 3-21G
 ****
 27  28  29  34  36  39  40  41  42  43  44  45  46 0
 3-21G
 ****


