%nproc=1
%NoSave
%Mem=1900MB
#P OB98/GEN NMR

erre ene a

0 1
  C     -334.488     120.493    -471.008
  O     -333.204     121.080    -471.095
  H     -334.968     120.549    -471.989
  H     -335.108     121.031    -470.286
  H     -334.409     119.442    -470.718
  P     -332.300     121.124    -469.775
  C     -331.599     118.683    -470.246
  O     -332.139     119.601    -469.302
  C     -330.552     117.802    -469.575
  O     -329.354     118.556    -469.307
  C     -331.000     117.210    -468.239
  O     -331.817     116.070    -468.450
  C     -329.653     116.879    -467.619
  O     -329.126     115.677    -468.216
  C     -328.811     118.096    -468.039
  N     -326.024     121.056    -465.006
  C     -325.650     119.968    -465.778
  N     -324.354     119.597    -465.693
  N     -326.476     119.301    -466.543
  C     -327.750     119.749    -466.472
  C     -328.243     120.799    -465.735
  C     -327.314     121.566    -464.937
  O     -327.602     122.543    -464.251
  N     -329.606     120.908    -465.868
  C     -329.927     119.951    -466.712
  N     -328.837     119.205    -467.099
  O     -332.755     122.050    -468.687
  O     -330.843     121.500    -470.313
  H     -328.842     115.914    -469.117
  H     -330.694     122.463    -470.292
  H     -325.348     121.516    -464.427
  H     -330.929     119.752    -467.078
  H     -327.760     117.838    -468.205
  H     -329.706     116.711    -466.545
  H     -323.767     119.886    -464.923
  H     -331.496     117.959    -467.612
  H     -324.073     118.775    -466.209
  H     -330.280     117.008    -470.283
  H     -331.147     119.267    -471.054
  H     -332.395     118.057    -470.665
  P     -332.761     115.501    -467.282
  C     -334.768     116.993    -467.950
  O     -333.789     116.695    -466.967
  O     -332.040     114.969    -466.093
  O     -333.695     114.431    -468.009
  H     -333.308     113.520    -468.031
  H     -335.379     117.803    -467.610
  H     -335.379     116.131    -468.118
  H     -334.284     117.270    -468.863

 6  7  8  9  10  11  12  13  14  15  26  29  33  34 0
 6-311+G(2d,p)
 ****
 36  38  39  40  41 0
 6-311+G(2d,p)
 ****
 1  2  3  4  5  16  17  18  19  20  21  22  23  24  25 0
 3-21G
 ****
 27  28  30  31  32  35  37  42  43  44  45  46  47 0
 3-21G
 ****
 48  49 0
 3-21G
 ****


