%nproc=1
%NoSave
%Mem=1900MB
#P OB98/GEN NMR

erre ene a

0 1
  C     -697.396    2053.788    1469.593
  O     -696.808    2052.656    1470.238
  P     -696.859    2051.268    1469.420
  C     -697.127    2049.544    1471.398
  O     -696.280    2050.134    1470.428
  C     -696.375    2048.515    1472.222
  O     -696.243    2047.301    1471.494
  C     -694.940    2048.934    1472.607
  O     -694.904    2049.887    1473.644
  C     -694.361    2047.564    1472.948
  O     -694.778    2047.209    1474.306
  C     -695.049    2046.636    1471.935
  N     -690.631    2044.511    1470.355
  C     -691.175    2044.664    1471.578
  N     -692.339    2045.249    1471.954
  C     -692.947    2045.719    1470.845
  C     -692.528    2045.668    1469.508
  C     -691.320    2045.068    1469.271
  N     -690.746    2044.906    1468.034
  N     -693.440    2046.306    1468.686
  C     -694.397    2046.719    1469.495
  N     -694.179    2046.379    1470.763
  O     -695.689    2051.443    1468.356
  O     -698.178    2050.905    1468.785
  H     -694.449    2046.301    1474.492
  H     -695.915    2050.994    1467.496
  H     -690.616    2044.234    1472.395
  H     -695.312    2047.240    1469.150
  H     -695.311    2045.672    1472.379
  H     -693.243    2047.557    1472.941
  H     -694.404    2049.310    1471.694
  H     -696.968    2048.366    1473.159
  H     -697.975    2049.079    1470.888
  H     -689.794    2044.586    1467.972
  H     -691.185    2045.410    1467.269
  H     -697.542    2050.366    1472.033
  P     -693.829    2051.069    1473.526
  C     -692.671    2050.889    1475.820
  O     -693.620    2051.553    1475.024
  O     -694.689    2052.235    1472.830
  O     -692.569    2050.680    1472.812
  H     -695.527    2052.384    1473.322
  H     -692.630    2051.332    1476.807
  H     -691.678    2050.962    1475.323
  H     -692.932    2049.832    1475.930
  H     -697.304    2054.646    1470.225
  H     -698.431    2053.593    1469.405
  H     -696.893    2053.972    1468.667

 3  4  5  6  7  8  9  10  11  12  22  25  29  30  31  32 0
 6-311+G(2d,p)
 ****
 33  36  37 0
 6-311+G(2d,p)
 ****
 1  2  13  14  15  16  17  18  19  20  21  23  24  26 0
 3-21G
 ****
 27  28  34  35  38  39  40  41  42  43  44  45  46  47  48 0
 3-21G
 ****


