%nproc=1
%NoSave
%Mem=1900MB
#P OB98/GEN NMR

erre ene a

0 1
  C       74.840     -39.319    -219.879
  O       73.745     -39.873    -219.144
  P       72.281     -39.733    -219.783
  C       72.356     -42.093    -220.879
  O       71.679     -41.200    -220.002
  C       71.372     -43.112    -221.457
  O       71.972     -43.869    -222.524
  C       70.916     -44.146    -220.442
  O       69.935     -43.602    -219.583
  C       70.398     -45.264    -221.339
  O       69.002     -45.100    -221.640
  C       71.254     -45.112    -222.617
  N       72.160     -46.230    -222.822
  C       71.556     -47.462    -223.097
  O       70.329     -47.558    -223.133
  N       72.360     -48.555    -223.299
  C       73.648     -48.433    -223.208
  N       74.392     -49.553    -223.412
  C       74.322     -47.158    -222.892
  C       73.524     -46.107    -222.711
  O       72.577     -39.228    -221.272
  O       71.390     -38.785    -219.048
  H       68.541     -45.135    -220.776
  H       71.863     -38.643    -221.579
  H       75.397     -47.107    -222.819
  H       73.932     -45.130    -222.474
  H       70.609     -45.035    -223.501
  H       70.504     -46.242    -220.861
  H       71.776     -44.506    -219.863
  H       70.503     -42.568    -221.854
  H       73.898     -50.411    -223.625
  H       73.156     -42.610    -220.345
  H       75.400     -49.574    -223.359
  H       72.833     -41.512    -221.675
  P       70.156     -43.758    -218.005
  C       71.346     -41.638    -217.181
  O       70.101     -42.263    -217.427
  O       71.723     -44.087    -217.918
  O       69.331     -44.777    -217.294
  H       71.970     -44.301    -217.000
  H       71.174     -40.576    -216.995
  H       72.007     -41.741    -218.045
  H       71.814     -42.078    -216.297
  H       75.750     -39.483    -219.341
  H       74.687     -38.268    -220.009
  H       74.902     -39.792    -220.837

 3  4  5  6  7  8  9  10  11  12  13  21  23  27  28  29  30  32 0
 6-311+G(2d,p)
 ****
 34  35 0
 6-311+G(2d,p)
 ****
 1  2  14  15  16  17  18  19  20  22  24  25  26 0
 3-21G
 ****
 31  33  36  37  38  39  40  41  42  43  44  45  46 0
 3-21G
 ****


