%nproc=1
%NoSave
%Mem=1900MB
#P OB98/GEN NMR

erre ene a

0 1
  C     -415.027     189.536    -157.301
  O     -414.691     188.772    -158.446
  P     -413.848     187.427    -158.224
  C     -411.316     186.821    -158.078
  O     -412.295     187.831    -158.314
  C     -410.333     186.741    -159.251
  O     -410.936     185.947    -160.317
  C     -409.932     188.098    -159.856
  O     -408.560     187.969    -160.276
  C     -410.869     188.197    -161.046
  O     -410.467     189.164    -162.001
  C     -410.857     186.752    -161.522
  N     -412.659     187.197    -166.297
  C     -411.470     187.547    -165.744
  N     -411.063     187.388    -164.464
  C     -412.022     186.786    -163.735
  C     -413.276     186.389    -164.157
  C     -413.598     186.613    -165.507
  N     -414.798     186.266    -166.072
  N     -413.991     185.837    -163.105
  C     -413.182     185.906    -162.077
  N     -411.965     186.445    -162.408
  O     -414.075     186.626    -159.596
  O     -414.244     186.617    -157.029
  H     -410.354     190.033    -161.571
  H     -414.180     185.669    -159.424
  H     -410.752     188.027    -166.420
  H     -413.413     185.569    -161.068
  H     -409.921     186.480    -162.041
  H     -411.852     188.498    -160.699
  H     -410.023     188.925    -159.133
  H     -409.452     186.192    -158.908
  H     -411.815     185.864    -157.973
  H     -415.003     186.644    -166.989
  H     -415.553     186.027    -165.430
  H     -410.799     187.045    -157.136
  P     -407.882     189.202    -161.072
  C     -407.333     189.595    -163.550
  O     -407.787     188.671    -162.583
  O     -406.373     189.065    -160.581
  O     -408.511     190.546    -160.857
  H     -406.033     188.164    -160.678
  H     -407.216     189.084    -164.510
  H     -406.356     190.012    -163.254
  H     -408.063     190.407    -163.663
  H     -415.585     190.399    -157.599
  H     -414.132     189.845    -156.803
  H     -415.618     188.941    -156.636

 3  4  5  6  7  8  9  10  11  12  22  25  29  30  31  32 0
 6-311+G(2d,p)
 ****
 33  36  37 0
 6-311+G(2d,p)
 ****
 1  2  13  14  15  16  17  18  19  20  21  23  24  26 0
 3-21G
 ****
 27  28  34  35  38  39  40  41  42  43  44  45  46  47  48 0
 3-21G
 ****


