%nproc=1
%NoSave
%Mem=1900MB
#P OB98/GEN NMR

erre ene a

0 1
  C      529.385    -202.504     401.154
  O      529.760    -203.246     402.312
  P      528.561    -203.885     403.182
  C      529.131    -206.419     402.885
  O      528.252    -205.333     402.566
  C      528.365    -207.635     403.371
  O      527.466    -208.121     402.344
  C      529.215    -208.816     403.767
  O      529.766    -208.669     405.058
  C      528.194    -209.943     403.751
  O      527.479    -209.963     404.996
  C      527.279    -209.540     402.589
  N      528.279    -214.076     400.550
  C      528.073    -213.719     401.876
  N      528.123    -214.735     402.787
  N      527.849    -212.510     402.271
  C      527.815    -211.603     401.252
  C      528.007    -211.836     399.907
  C      528.286    -213.176     399.484
  O      528.506    -213.558     398.328
  N      527.883    -210.669     399.174
  C      527.590    -209.768     400.080
  N      527.550    -210.269     401.359
  O      527.277    -203.021     402.722
  O      528.783    -203.846     404.649
  H      528.157    -210.046     405.698
  H      526.637    -203.001     403.441
  H      528.466    -215.046     400.297
  H      527.392    -208.725     399.853
  H      526.214    -209.679     402.845
  H      528.664    -210.942     403.642
  H      528.212    -215.712     402.559
  H      529.995    -209.014     403.009
  H      527.925    -214.509     403.742
  H      527.731    -207.293     404.232
  H      529.835    -206.093     403.662
  H      529.719    -206.657     401.986
  P      531.334    -208.968     405.242
  C      532.511    -206.897     404.159
  O      532.063    -208.229     404.005
  O      531.447    -210.521     404.885
  O      531.882    -208.641     406.595
  H      532.199    -210.942     405.359
  H      532.972    -206.749     405.144
  H      531.643    -206.202     404.073
  H      533.227    -206.655     403.387
  H      530.263    -202.135     400.667
  H      528.765    -201.681     401.443
  H      528.845    -203.139     400.483

 3  4  5  6  7  8  9  10  11  12  23  26  30  31  33  0
 6-311+G(2d,p)
 ****
 35  36  37  38 0
 6-311+G(2d,p)
 ****
 1  2  13  14  15  16  17  18  19  20  21  22  24  25  27  28  29 0
 3-21G
 ****
 32  34  39  40  41  42  43  44  45  46  47  48  49 0
 3-21G
 ****


