%nproc=1
%NoSave
%Mem=1900MB
#P OB98/GEN NMR

erre ene a

0 1
  C     -320.881    -787.126     442.120
  O     -319.740    -787.515     441.383
  H     -321.686    -787.847     441.962
  H     -320.626    -787.117     443.185
  H     -321.212    -786.125     441.826
  P     -319.789    -787.315     439.792
  C     -318.776    -784.995     440.367
  O     -319.655    -785.735     439.530
  C     -317.909    -784.056     439.525
  O     -316.896    -784.856     438.850
  C     -318.676    -783.271     438.456
  O     -318.124    -781.942     438.385
  C     -318.345    -784.008     437.173
  O     -318.451    -783.180     436.015
  C     -316.926    -784.484     437.459
  N     -314.386    -785.794     433.248
  C     -314.348    -784.677     434.010
  N     -315.024    -784.435     435.152
  C     -315.742    -785.502     435.528
  C     -315.874    -786.718     434.850
  C     -315.164    -786.824     433.642
  N     -315.241    -787.923     432.820
  N     -316.748    -787.540     435.523
  C     -317.158    -786.852     436.560
  N     -316.577    -785.610     436.603
  O     -321.331    -787.624     439.454
  O     -318.863    -788.178     439.001
  H     -318.231    -783.716     435.225
  H     -321.445    -788.582     439.304
  H     -313.710    -783.876     433.659
  H     -317.889    -787.174     437.288
  H     -316.171    -783.700     437.289
  H     -319.033    -784.851     437.051
  H     -319.755    -783.204     438.638
  H     -317.380    -783.376     440.205
  H     -318.132    -785.693     440.909
  H     -314.780    -787.874     431.923
  H     -315.901    -788.656     433.049
  H     -319.365    -784.418     441.086
  P     -319.132    -780.735     438.091
  C     -317.794    -779.343     439.835
  O     -319.065    -779.702     439.308
  O     -320.577    -781.420     438.263
  O     -318.976    -780.129     436.732
  H     -321.219    -781.005     437.657
  H     -317.924    -778.649     440.639
  H     -317.203    -778.891     439.065
  H     -317.298    -780.219     440.198

 6  7  8  9  10  11  12  13  14  15  25  28  32  33  34  35 0
 6-311+G(2d,p)
 ****
 36  39  40 0
 6-311+G(2d,p)
 ****
 1  2  3  4  5  16  17  18  19  20  21  22  23  24 0
 3-21G
 ****
 26  27  29  30  31  37  38  41  42  43  44  45  46  47 0
 3-21G
 ****
 48 0
 3-21G
 ****


