%nproc=1
%NoSave
%Mem=1900MB
#P OB98/GEN NMR

erre ene a

0 1
  C      283.956    -844.210    -149.326
  O      284.185    -844.688    -150.636
  H      283.508    -843.215    -149.393
  H      284.896    -844.140    -148.784
  H      283.264    -844.870    -148.795
  P      284.753    -846.181    -150.776
  C      283.792    -846.329    -153.185
  O      284.943    -846.457    -152.345
  C      284.200    -846.230    -154.648
  O      284.716    -844.889    -154.909
  C      285.284    -847.234    -155.069
  O      285.018    -847.634    -156.424
  C      286.552    -846.389    -155.066
  O      287.587    -846.944    -155.876
  C      285.985    -845.064    -155.574
  N      288.621    -841.371    -157.769
  C      287.761    -842.304    -158.312
  N      287.565    -842.253    -159.648
  N      287.135    -843.211    -157.605
  C      287.397    -843.136    -156.271
  C      288.233    -842.271    -155.611
  C      288.937    -841.280    -156.411
  O      289.721    -840.444    -155.990
  N      288.249    -842.533    -154.262
  C      287.431    -843.547    -154.120
  N      286.882    -843.958    -155.309
  O      283.487    -847.074    -150.379
  O      285.948    -846.500    -149.930
  H      288.397    -846.397    -155.741
  H      283.510    -847.296    -149.428
  H      289.081    -840.701    -158.362
  H      287.184    -844.028    -153.174
  H      285.807    -845.071    -156.657
  H      286.929    -846.291    -154.043
  H      287.976    -841.552    -160.249
  H      285.354    -848.120    -154.433
  H      286.902    -842.900    -160.059
  H      283.299    -846.343    -155.269
  H      283.248    -845.416    -152.897
  H      283.140    -847.192    -153.027
  P      284.108    -848.933    -156.664
  C      282.806    -847.701    -158.548
  O      283.520    -848.862    -158.159
  O      282.812    -848.627    -155.761
  O      284.750    -850.226    -156.285
  H      282.412    -849.468    -155.469
  H      282.482    -847.805    -159.562
  H      283.443    -846.845    -158.463
  H      281.954    -847.576    -157.912

 6  7  8  9  10  11  12  13  14  15  26  29  33  34 0
 6-311+G(2d,p)
 ****
 36  38  39  40  41 0
 6-311+G(2d,p)
 ****
 1  2  3  4  5  16  17  18  19  20  21  22  23  24  25 0
 3-21G
 ****
 27  28  30  31  32  35  37  42  43  44  45  46  47 0
 3-21G
 ****
 48  49 0
 3-21G
 ****


