%nproc=1
%NoSave
%Mem=1900MB
#P OB98/GEN NMR

erre ene a

0 1
  C     -345.322     -48.933      71.056
  O     -344.068     -48.317      70.763
  P     -343.766     -47.989      69.215
  C     -342.838     -45.564      69.032
  O     -343.976     -46.413      69.007
  C     -342.595     -45.026      70.440
  O     -342.297     -46.088      71.358
  C     -341.418     -44.069      70.542
  O     -341.758     -42.760      70.106
  C     -341.162     -44.077      72.045
  O     -342.063     -43.170      72.704
  C     -341.487     -45.532      72.425
  N     -337.424     -46.487      75.301
  C     -338.419     -45.539      75.458
  N     -338.327     -44.754      76.555
  N     -339.408     -45.381      74.623
  C     -339.381     -46.255      73.588
  C     -338.456     -47.236      73.324
  C     -337.348     -47.382      74.243
  O     -336.426     -48.182      74.131
  N     -338.775     -47.931      72.185
  C     -339.908     -47.394      71.780
  N     -340.313     -46.361      72.588
  O     -345.028     -48.632      68.465
  O     -342.477     -48.548      68.719
  H     -341.676     -42.966      73.578
  H     -344.783     -48.879      67.553
  H     -336.682     -46.562      75.971
  H     -340.472     -47.716      70.915
  H     -342.079     -45.588      73.348
  H     -340.140     -43.763      72.305
  H     -337.635     -44.867      77.276
  H     -340.539     -44.461      70.015
  H     -339.070     -44.077      76.705
  H     -343.514     -44.519      70.772
  H     -342.978     -44.734      68.339
  H     -341.967     -46.131      68.674
  P     -340.964     -42.188      68.833
  C     -343.067     -41.163      67.702
  O     -342.042     -42.135      67.647
  O     -340.000     -43.394      68.428
  O     -340.212     -40.927      69.090
  H     -339.194     -43.055      67.999
  H     -342.677     -40.192      68.015
  H     -343.844     -41.492      68.400
  H     -343.508     -41.056      66.708
  H     -345.401     -49.098      72.110
  H     -345.388     -49.870      70.543
  H     -346.117     -48.293      70.734

 3  4  5  6  7  8  9  10  11  12  23  26  30  31  33  0
 6-311+G(2d,p)
 ****
 35  36  37  38 0
 6-311+G(2d,p)
 ****
 1  2  13  14  15  16  17  18  19  20  21  22  24  25  27  28  29 0
 3-21G
 ****
 32  34  39  40  41  42  43  44  45  46  47  48  49 0
 3-21G
 ****


