%nproc=1
%NoSave
%Mem=1900MB
#P OB98/GEN NMR

erre ene a

0 1
  C     -137.166    -107.957     -18.102
  O     -136.632    -106.727     -17.652
  H     -137.335    -108.601     -17.236
  H     -136.464    -108.451     -18.780
  H     -138.120    -107.786     -18.609
  P     -136.276    -105.644     -18.780
  C     -136.424    -103.526     -17.320
  O     -135.563    -104.450     -17.974
  C     -135.755    -102.155     -17.215
  O     -134.629    -102.260     -16.307
  C     -135.227    -101.631     -18.552
  O     -135.438    -100.222     -18.621
  C     -133.739    -101.920     -18.486
  O     -132.977    -101.046     -19.315
  C     -133.460    -101.776     -16.992
  N     -128.441    -102.319     -17.725
  C     -129.323    -101.392     -18.156
  N     -130.646    -101.313     -17.899
  C     -131.027    -102.299     -17.068
  C     -130.245    -103.315     -16.549
  C     -128.888    -103.309     -16.915
  N     -127.988    -104.264     -16.500
  N     -131.009    -104.164     -15.771
  C     -132.228    -103.659     -15.809
  N     -132.291    -102.541     -16.595
  O     -137.406    -105.233     -19.663
  O     -135.044    -106.342     -19.523
  H     -132.027    -101.197     -19.130
  H     -134.415    -106.729     -18.886
  H     -128.915    -100.615     -18.798
  H     -133.094    -104.071     -15.302
  H     -133.286    -100.735     -16.695
  H     -133.549    -102.949     -18.818
  H     -135.699    -102.117     -19.407
  H     -136.463    -101.451     -16.762
  H     -136.674    -103.888     -16.317
  H     -127.030    -104.174     -16.798
  H     -128.299    -104.999     -15.882
  H     -137.347    -103.454     -17.904
  P     -136.929     -99.683     -18.859
  C     -137.022     -97.507     -17.474
  O     -136.913     -98.080     -18.773
  O     -138.001    -100.357     -18.072
  O     -137.138     -99.934     -20.431
  H     -138.061    -100.212     -20.587
  H     -136.999     -96.440     -17.552
  H     -136.204     -97.838     -16.868
  H     -137.944     -97.812     -17.026

 6  7  8  9  10  11  12  13  14  15  25  28  32  33  34  35 0
 6-311+G(2d,p)
 ****
 36  39  40 0
 6-311+G(2d,p)
 ****
 1  2  3  4  5  16  17  18  19  20  21  22  23  24 0
 3-21G
 ****
 26  27  29  30  31  37  38  41  42  43  44  45  46  47 0
 3-21G
 ****
 48 0
 3-21G
 ****


