%nproc=1
%NoSave
%Mem=1900MB
#P OB98/GEN NMR

erre ene a

0 1
  C     -920.569    -353.465     346.911
  O     -920.236    -352.468     345.963
  H     -921.459    -353.149     347.452
  H     -919.754    -353.592     347.631
  H     -920.784    -354.418     346.420
  P     -919.013    -352.734     344.953
  C     -920.081    -351.731     342.851
  O     -919.089    -351.581     343.838
  C     -920.366    -350.397     342.147
  O     -921.010    -349.498     343.096
  C     -919.099    -349.689     341.635
  O     -919.403    -349.051     340.388
  C     -918.824    -348.630     342.694
  O     -918.110    -347.524     342.165
  C     -920.245    -348.288     343.158
  N     -919.061    -344.259     345.966
  C     -918.999    -344.423     344.607
  N     -918.541    -343.395     343.864
  N     -919.361    -345.553     343.999
  C     -919.824    -346.491     344.840
  C     -919.937    -346.429     346.222
  C     -919.507    -345.207     346.867
  O     -919.525    -345.002     348.095
  N     -920.423    -347.615     346.725
  C     -920.616    -348.372     345.686
  N     -920.248    -347.748     344.509
  O     -918.913    -354.112     344.417
  O     -917.715    -352.328     345.812
  H     -918.193    -346.795     342.813
  H     -917.282    -353.134     346.166
  H     -918.761    -343.387     346.379
  H     -920.988    -349.391     345.697
  H     -920.729    -347.535     342.522
  H     -918.235    -349.079     343.514
  H     -918.258    -342.512     344.258
  H     -918.248    -350.371     341.504
  H     -918.502    -343.502     342.858
  H     -921.085    -350.555     341.330
  H     -921.004    -352.091     343.330
  H     -919.749    -352.477     342.106
  P     -918.399    -349.267     339.155
  C     -920.617    -349.274     337.824
  O     -919.215    -348.980     337.817
  O     -917.602    -350.525     339.167
  O     -917.441    -347.962     339.263
  H     -916.573    -348.192     338.906
  H     -921.036    -349.035     336.869
  H     -921.100    -348.692     338.581
  H     -920.762    -350.314     338.027

 6  7  8  9  10  11  12  13  14  15  26  29  33  34 0
 6-311+G(2d,p)
 ****
 36  38  39  40  41 0
 6-311+G(2d,p)
 ****
 1  2  3  4  5  16  17  18  19  20  21  22  23  24  25 0
 3-21G
 ****
 27  28  30  31  32  35  37  42  43  44  45  46  47 0
 3-21G
 ****
 48  49 0
 3-21G
 ****


