%nproc=1
%NoSave
%Mem=1900MB
#P OB98/GEN NMR

erre ene a

0 1
  C      -70.465    -221.411      92.583
  O      -70.727    -221.813      93.915
  P      -71.165    -220.747      95.023
  C      -68.810    -220.300      96.094
  O      -69.912    -219.819      95.353
  C      -68.419    -219.251      97.144
  O      -67.710    -218.162      96.518
  C      -69.648    -218.675      97.843
  O      -69.906    -219.370      99.051
  C      -69.259    -217.223      98.052
  O      -68.423    -217.087      99.217
  C      -68.443    -216.932      96.770
  N      -69.179    -216.581      95.540
  C      -69.927    -215.406      95.497
  O      -69.994    -214.606      96.424
  N      -70.631    -215.194      94.337
  C      -70.619    -215.998      93.236
  O      -71.423    -215.929      92.315
  C      -69.610    -217.063      93.245
  C      -68.967    -217.316      94.383
  O      -71.323    -221.639      96.340
  O      -72.408    -219.976      94.717
  H      -67.634    -217.636      99.072
  H      -72.261    -221.864      96.495
  H      -71.282    -214.415      94.354
  H      -69.465    -217.640      92.340
  H      -68.242    -218.126      94.425
  H      -67.709    -216.139      96.944
  H      -70.135    -216.604      98.232
  H      -70.519    -218.712      97.175
  H      -67.746    -219.716      97.875
  H      -67.965    -220.501      95.422
  H      -69.066    -221.246      96.581
  P      -71.412    -219.726      99.455
  C      -71.462    -217.906     101.263
  O      -72.020    -218.364     100.047
  O      -71.585    -220.932     100.315
  O      -72.139    -219.896      98.037
  H      -72.192    -220.848      97.804
  H      -71.828    -216.898     101.461
  H      -70.369    -217.885     101.198
  H      -71.771    -218.564     102.083
  H      -70.189    -222.265      92.001
  H      -69.665    -220.700      92.576
  H      -71.343    -220.964      92.166

 3  4  5  6  7  8  9  10  11  12  13  23  28  29  30  31  32 0
 6-311+G(2d,p)
 ****
 33  34 0
 6-311+G(2d,p)
 ****
 1  2  14  15  16  17  18  19  20  21  22  24  25  26  27 0
 3-21G
 ****
 35  36  37  38  39  40  41  42  43  44  45 0
 3-21G
 ****


