%nproc=1
%NoSave
%Mem=1900MB
#P OB98/GEN NMR

erre ene a

0 1
  C     -416.301     196.661     -77.510
  O     -417.674     196.739     -77.173
  P     -418.803     196.748     -78.318
  C     -420.630     196.418     -76.522
  O     -420.142     197.231     -77.578
  C     -422.052     196.833     -76.155
  O     -422.024     198.130     -75.520
  C     -422.993     196.977     -77.341
  O     -423.424     195.707     -77.809
  C     -424.087     197.856     -76.739
  O     -424.980     197.065     -75.944
  C     -423.269     198.800     -75.831
  N     -423.022     200.104     -76.441
  C     -423.664     201.201     -75.846
  O     -424.380     201.051     -74.854
  N     -423.448     202.448     -76.366
  C     -422.681     202.594     -77.404
  N     -422.447     203.867     -77.836
  C     -422.035     201.464     -78.094
  C     -422.244     200.263     -77.562
  O     -418.934     195.473     -79.086
  O     -418.440     198.011     -79.231
  H     -425.575     197.679     -75.484
  H     -417.810     197.800     -79.962
  H     -421.416     201.634     -78.966
  H     -421.786     199.380     -77.998
  H     -423.784     198.946     -74.874
  H     -424.688     198.382     -77.491
  H     -422.501     197.515     -78.158
  H     -422.449     196.107     -75.431
  H     -422.761     204.615     -77.230
  H     -419.982     196.549     -75.650
  H     -421.657     204.083     -78.434
  H     -420.597     195.364     -76.827
  P     -423.787     195.579     -79.366
  C     -424.993     193.325     -78.914
  O     -425.088     194.639     -79.436
  O     -422.600     194.661     -79.943
  O     -423.891     196.881     -80.089
  H     -421.945     195.212     -80.405
  H     -426.004     192.919     -78.821
  H     -424.522     193.334     -77.927
  H     -424.421     192.690     -79.596
  H     -415.713     196.668     -76.616
  H     -416.035     197.500     -78.118
  H     -416.117     195.756     -78.051

 3  4  5  6  7  8  9  10  11  12  13  23  27  28  29  30  32 0
 6-311+G(2d,p)
 ****
 34  35 0
 6-311+G(2d,p)
 ****
 1  2  14  15  16  17  18  19  20  21  22  24  25  26 0
 3-21G
 ****
 31  33  36  37  38  39  40  41  42  43  44  45  46 0
 3-21G
 ****


