%nproc=1
%NoSave
%Mem=1900MB
#P OB98/GEN NMR

erre ene a

0 1
  C      438.966    -529.213     504.487
  O      437.931    -530.016     503.951
  H      438.583    -528.713     505.390
  H      439.268    -528.439     503.772
  H      439.824    -529.829     504.763
  P      438.185    -530.735     502.540
  C      436.210    -532.325     503.071
  O      436.786    -531.409     502.146
  C      434.989    -532.995     502.448
  O      435.309    -533.503     501.139
  C      434.494    -534.187     503.252
  O      433.783    -533.772     504.401
  C      433.658    -534.912     502.207
  O      432.371    -534.310     502.051
  C      434.519    -534.700     500.930
  N      435.374    -535.840     500.627
  C      434.866    -536.756     499.694
  O      433.768    -536.576     499.177
  N      435.628    -537.872     499.399
  C      436.777    -538.040     499.965
  N      437.474    -539.160     499.621
  C      437.357    -537.095     500.945
  C      436.604    -536.027     501.223
  O      439.361    -531.658     502.454
  O      438.302    -529.507     501.513
  H      431.955    -534.757     501.286
  H      439.227    -529.211     501.447
  H      438.322    -537.280     501.382
  H      436.955    -535.290     501.937
  H      433.874    -534.508     500.061
  H      433.514    -535.956     502.460
  H      435.335    -534.842     503.528
  H      434.190    -532.243     502.336
  H      437.034    -539.786     498.963
  H      435.910    -531.746     503.948
  H      438.414    -539.359     499.934
  H      436.938    -533.081     503.375
  P      433.754    -534.701     505.714
  C      434.360    -532.717     507.259
  O      433.384    -533.697     506.918
  O      434.973    -535.543     505.934
  O      432.404    -535.553     505.529
  H      432.519    -536.250     504.850
  H      433.996    -532.117     508.067
  H      434.551    -532.094     506.411
  H      435.266    -533.204     507.556

 6  7  8  9  10  11  12  13  14  15  16  26  30  31  32  33  35 0
 6-311+G(2d,p)
 ****
 37  38 0
 6-311+G(2d,p)
 ****
 1  2  3  4  5  17  18  19  20  21  22  23  24  25 0
 3-21G
 ****
 27  28  29  34  36  39  40  41  42  43  44  45  46 0
 3-21G
 ****


