%nproc=1
%NoSave
%Mem=1900MB
#P OB98/GEN NMR

erre ene a

0 1
  C       -1.714       5.859      24.214
  O       -2.958       5.260      23.852
  P       -3.709       5.764      22.526
  C       -2.751       4.351      20.606
  O       -3.836       4.531      21.504
  C       -2.572       2.884      20.191
  O       -2.082       2.088      21.303
  C       -3.855       2.212      19.681
  O       -3.468       1.307      18.641
  C       -4.330       1.453      20.904
  O       -5.258       0.429      20.581
  C       -2.990       0.982      21.474
  N       -3.087       0.574      22.866
  C       -3.630      -0.684      23.128
  O       -4.097      -1.356      22.208
  N       -3.655      -1.131      24.427
  C       -3.312      -0.329      25.386
  N       -3.332      -0.815      26.656
  C       -2.905       1.070      25.159
  C       -2.791       1.442      23.888
  O       -3.178       7.024      21.930
  O       -5.220       5.959      23.028
  H       -5.344      -0.177      21.347
  H       -5.614       6.717      22.552
  H       -2.707       1.725      25.995
  H       -2.493       2.444      23.618
  H       -2.592       0.140      20.891
  H       -4.820       2.145      21.599
  H       -4.589       2.920      19.286
  H       -1.805       2.848      19.406
  H       -3.637      -1.770      26.799
  H       -1.831       4.703      21.081
  H       -3.029      -0.269      27.453
  H       -2.903       4.991      19.729
  P       -3.899       1.632      17.129
  C       -2.563       3.812      16.664
  O       -2.695       2.426      16.433
  O       -4.984       2.798      17.344
  O       -4.506       0.505      16.360
  H       -5.590       2.810      16.580
  H       -1.560       4.124      16.358
  H       -2.691       4.053      17.723
  H       -3.299       4.360      16.070
  H       -1.352       5.411      25.116
  H       -1.855       6.908      24.369
  H       -1.003       5.706      23.429

 3  4  5  6  7  8  9  10  11  12  13  23  27  28  29  30  32 0
 6-311+G(2d,p)
 ****
 34  35 0
 6-311+G(2d,p)
 ****
 1  2  14  15  16  17  18  19  20  21  22  24  25  26 0
 3-21G
 ****
 31  33  36  37  38  39  40  41  42  43  44  45  46 0
 3-21G
 ****


