%nproc=1
%NoSave
%Mem=1900MB
#P OB98/GEN NMR

erre ene a

0 1
  C      899.047      43.934     177.965
  O      898.659      42.687     178.506
  H      898.520      44.090     177.021
  H      900.123      43.941     177.775
  H      898.788      44.748     178.653
  P      899.126      42.352     180.000
  C      898.874      43.761     182.168
  O      898.272      43.306     180.971
  C      897.875      44.606     182.965
  O      897.449      45.725     182.135
  C      896.616      43.844     183.398
  O      896.220      44.319     184.687
  C      895.585      44.275     182.369
  O      894.241      44.144     182.812
  C      896.005      45.731     182.133
  N      895.486      46.265     180.878
  C      894.234      46.879     180.914
  O      893.580      47.073     181.936
  N      893.735      47.279     179.700
  C      894.339      47.108     178.486
  O      893.826      47.467     177.432
  C      895.651      46.446     178.513
  C      896.152      46.064     179.685
  O      900.599      42.978     180.066
  O      899.102      40.903     180.372
  H      901.261      42.320     179.789
  H      893.682      44.674     182.211
  H      892.832      47.723     179.707
  H      896.155      46.285     177.562
  H      897.111      45.552     179.738
  H      895.678      46.362     182.971
  H      895.701      43.681     181.452
  H      896.738      42.757     183.428
  H      898.391      45.030     183.841
  H      899.747      44.375     181.932
  H      899.200      42.897     182.761
  P      896.972      43.702     185.968
  C      899.404      42.996     185.297
  O      898.525      44.023     185.740
  O      896.838      42.137     185.678
  O      896.390      44.164     187.263
  H      896.891      41.917     184.725
  H      900.394      43.391     185.201
  H      899.073      42.628     184.348
  H      899.406      42.197     186.008

 6  7  8  9  10  11  12  13  14  15  16  27  31  32  33  34  35 0
 6-311+G(2d,p)
 ****
 36  37 0
 6-311+G(2d,p)
 ****
 1  2  3  4  5  17  18  19  20  21  22  23  24  25 0
 3-21G
 ****
 26  28  29  30  38  39  40  41  42  43  44  45 0
 3-21G
 ****


