%nproc=1
%NoSave
%Mem=1900MB
#P OB98/GEN NMR

erre ene a

0 1
  C      -70.747    -244.016      12.980
  O      -71.646    -243.984      11.866
  P      -72.056    -242.549      11.271
  C      -73.581    -240.555      11.972
  O      -73.116    -241.865      12.264
  C      -74.947    -240.306      12.620
  O      -76.012    -240.937      11.875
  C      -75.064    -240.856      14.034
  O      -74.493    -239.967      14.988
  C      -76.575    -240.918      14.206
  O      -77.086    -239.608      14.521
  C      -77.041    -241.348      12.806
  N      -80.552    -245.051      12.272
  C      -80.666    -243.710      12.411
  N      -79.687    -242.792      12.565
  C      -78.480    -243.378      12.556
  C      -78.202    -244.736      12.424
  C      -79.302    -245.594      12.279
  N      -79.179    -246.957      12.133
  N      -76.842    -244.964      12.471
  C      -76.304    -243.767      12.613
  N      -77.257    -242.782      12.677
  O      -72.946    -242.929       9.996
  O      -70.888    -241.693      10.893
  H      -76.795    -239.010      13.806
  H      -72.809    -242.270       9.289
  H      -81.683    -243.318      12.392
  H      -75.244    -243.567      12.669
  H      -77.979    -240.847      12.510
  H      -76.879    -241.585      15.022
  H      -74.631    -241.869      14.097
  H      -75.130    -239.224      12.630
  H      -73.649    -240.415      10.889
  H      -80.020    -247.503      12.003
  H      -78.257    -247.361      12.114
  H      -72.841    -239.826      12.328
  P      -73.055    -240.360      15.589
  C      -72.351    -242.244      17.237
  O      -73.354    -241.334      16.826
  O      -72.569    -238.995      16.266
  O      -72.078    -240.869      14.575
  H      -71.593    -238.937      16.247
  H      -72.586    -242.596      18.246
  H      -71.366    -241.772      17.249
  H      -72.337    -243.104      16.559
  H      -70.567    -245.032      13.264
  H      -71.180    -243.486      13.803
  H      -69.822    -243.554      12.705

 3  4  5  6  7  8  9  10  11  12  22  25  29  30  31  32 0
 6-311+G(2d,p)
 ****
 33  36  37 0
 6-311+G(2d,p)
 ****
 1  2  13  14  15  16  17  18  19  20  21  23  24  26 0
 3-21G
 ****
 27  28  34  35  38  39  40  41  42  43  44  45  46  47  48 0
 3-21G
 ****


