%nproc=1
%NoSave
%Mem=1900MB
#P OB98/GEN NMR

erre ene a

0 1
  C     -732.393     -75.169    -706.116
  O     -733.505     -75.345    -705.256
  H     -732.547     -75.708    -707.054
  H     -732.288     -74.102    -706.334
  H     -731.481     -75.524    -705.625
  P     -733.896     -76.858    -704.899
  C     -734.727     -76.338    -702.500
  O     -733.762     -76.998    -703.306
  C     -734.042     -75.369    -701.542
  O     -733.550     -74.223    -702.270
  C     -734.946     -74.805    -700.454
  O     -735.139     -75.719    -699.393
  C     -734.131     -73.595    -700.016
  O     -733.094     -74.016    -699.111
  C     -733.515     -73.108    -701.339
  N     -733.731     -67.984    -701.719
  C     -732.902     -68.808    -701.031
  N     -732.910     -70.155    -700.966
  C     -733.895     -70.661    -701.729
  C     -734.822     -69.956    -702.482
  C     -734.718     -68.558    -702.454
  N     -735.580     -67.723    -703.145
  N     -735.672     -70.812    -703.142
  C     -735.275     -72.025    -702.795
  N     -734.210     -71.984    -701.932
  O     -732.652     -77.706    -705.448
  O     -735.184     -77.339    -705.480
  H     -733.528     -74.234    -698.269
  H     -732.980     -78.559    -705.801
  H     -732.116     -68.315    -700.458
  H     -735.724     -72.940    -703.142
  H     -732.460     -72.832    -701.210
  H     -734.727     -72.837    -699.501
  H     -735.903     -74.459    -700.874
  H     -733.177     -75.883    -701.102
  H     -735.279     -77.087    -701.916
  H     -735.335     -66.750    -703.245
  H     -736.310     -68.161    -703.702
  H     -735.430     -75.812    -703.151
  P     -736.651     -76.132    -699.031
  C     -736.233     -78.667    -698.627
  O     -736.795     -77.674    -699.480
  O     -737.516     -75.350    -700.130
  O     -737.088     -75.803    -697.645
  H     -738.415     -75.191    -699.802
  H     -736.403     -79.636    -699.048
  H     -736.693     -78.611    -697.663
  H     -735.181     -78.500    -698.530

 6  7  8  9  10  11  12  13  14  15  25  28  32  33  34  35 0
 6-311+G(2d,p)
 ****
 36  39  40 0
 6-311+G(2d,p)
 ****
 1  2  3  4  5  16  17  18  19  20  21  22  23  24 0
 3-21G
 ****
 26  27  29  30  31  37  38  41  42  43  44  45  46  47  48 0
 3-21G
 ****


