%nproc=1
%NoSave
%Mem=1900MB
#P OB98/GEN NMR

erre ene a

0 1
  C      339.571    -175.597     -88.363
  O      339.787    -174.197     -88.284
  P      338.536    -173.225     -88.517
  C      336.989    -172.563     -90.498
  O      338.068    -173.370     -90.047
  C      336.230    -173.251     -91.637
  O      335.567    -174.448     -91.134
  C      335.155    -172.372     -92.279
  O      335.062    -172.676     -93.678
  C      333.869    -172.849     -91.624
  O      332.731    -172.553     -92.429
  C      334.171    -174.337     -91.462
  N      329.494    -174.757     -89.579
  C      329.908    -174.253     -90.793
  N      328.952    -173.706     -91.580
  N      331.146    -174.286     -91.216
  C      331.994    -174.854     -90.323
  C      331.703    -175.407     -89.100
  C      330.335    -175.352     -88.644
  O      329.901    -175.756     -87.564
  N      332.829    -175.920     -88.497
  C      333.803    -175.645     -89.338
  N      333.356    -174.972     -90.443
  O      339.204    -171.769     -88.460
  O      337.450    -173.351     -87.500
  H      332.659    -171.583     -92.469
  H      338.986    -171.334     -87.619
  H      328.531    -174.700     -89.298
  H      334.847    -175.893     -89.187
  H      334.012    -174.882     -92.404
  H      333.737    -172.357     -90.649
  H      327.988    -173.586     -91.283
  H      335.316    -171.290     -92.153
  H      329.228    -173.286     -92.456
  H      336.958    -173.584     -92.388
  H      337.379    -171.610     -90.852
  H      336.313    -172.363     -89.657
  P      335.308    -171.450     -94.686
  C      333.815    -169.487     -95.541
  O      333.956    -170.586     -94.661
  O      335.282    -172.147     -96.131
  O      336.572    -170.691     -94.437
  H      335.794    -171.618     -96.771
  H      332.986    -169.689     -96.224
  H      334.718    -169.309     -96.129
  H      333.585    -168.589     -94.959
  H      340.493    -176.111     -88.186
  H      339.204    -175.847     -89.337
  H      338.853    -175.889     -87.626

 3  4  5  6  7  8  9  10  11  12  23  26  30  31 0
 6-311+G(2d,p)
 ****
 33  35  36  37  38 0
 6-311+G(2d,p)
 ****
 1  2  13  14  15  16  17  18  19  20  21  22  24  25 0
 3-21G
 ****
 27  28  29  32  34  39  40  41  42  43  44  45  46  47  48  49 0
 3-21G
 ****


