%nproc=1
%NoSave
%Mem=1900MB
#P OB98/GEN NMR

erre ene a

0 1
  C     -755.682    -362.519    -316.886
  O     -755.043    -362.602    -318.138
  P     -754.267    -361.345    -318.745
  C     -752.557    -363.161    -319.375
  O     -753.168    -361.936    -319.762
  C     -751.882    -363.820    -320.583
  O     -751.086    -362.856    -321.320
  C     -750.907    -364.926    -320.221
  O     -751.437    -366.096    -319.633
  C     -750.154    -365.087    -321.534
  O     -750.880    -365.897    -322.456
  C     -750.081    -363.616    -322.031
  N     -748.747    -363.046    -321.850
  C     -747.751    -363.554    -322.685
  O     -747.945    -364.416    -323.533
  N     -746.500    -363.042    -322.499
  C     -746.137    -362.128    -321.544
  O     -744.982    -361.746    -321.403
  C     -747.225    -361.644    -320.678
  C     -748.460    -362.117    -320.866
  O     -753.726    -360.378    -317.738
  O     -755.337    -360.697    -319.748
  H     -750.312    -366.034    -323.238
  H     -755.631    -361.290    -320.460
  H     -745.767    -363.395    -323.079
  H     -746.974    -360.913    -319.923
  H     -749.279    -361.778    -320.244
  H     -750.339    -363.562    -323.096
  H     -749.176    -365.566    -321.379
  H     -750.190    -364.526    -319.488
  H     -752.674    -364.173    -321.254
  H     -753.331    -363.834    -318.984
  H     -751.842    -362.973    -318.570
  P     -750.649    -366.959    -318.542
  C     -752.955    -368.018    -317.990
  O     -751.563    -368.221    -318.148
  O     -749.988    -366.207    -317.431
  O     -749.506    -367.652    -319.443
  H     -748.715    -367.792    -318.894
  H     -753.404    -368.963    -317.679
  H     -753.405    -367.707    -318.946
  H     -753.152    -367.264    -317.220
  H     -756.142    -363.458    -316.657
  H     -756.430    -361.754    -316.917
  H     -754.960    -362.282    -316.132

 3  4  5  6  7  8  9  10  11  12  13  23  28  29  30  31  32 0
 6-311+G(2d,p)
 ****
 33  34 0
 6-311+G(2d,p)
 ****
 1  2  14  15  16  17  18  19  20  21  22  24  25  26  27 0
 3-21G
 ****
 35  36  37  38  39  40  41  42  43  44  45 0
 3-21G
 ****


