%nproc=1
%NoSave
%Mem=1900MB
#P OB98/GEN NMR

erre ene a

0 1
  C      386.808    -615.445     938.197
  O      385.436    -615.290     938.509
  H      387.177    -614.512     937.767
  H      386.938    -616.247     937.464
  H      387.387    -615.668     939.101
  P      384.669    -616.480     939.255
  C      384.496    -615.150     941.450
  O      384.988    -616.326     940.824
  C      384.118    -615.439     942.905
  O      382.946    -616.300     942.920
  C      385.228    -616.129     943.704
  O      385.209    -615.609     945.032
  C      384.794    -617.587     943.717
  O      385.302    -618.291     944.855
  C      383.273    -617.459     943.716
  N      381.590    -622.089     944.849
  C      382.115    -621.107     945.673
  N      382.224    -621.404     946.985
  N      382.487    -619.924     945.237
  C      382.306    -619.761     943.901
  C      381.802    -620.658     942.986
  C      381.404    -621.959     943.476
  O      380.951    -622.873     942.796
  N      381.799    -620.130     941.719
  C      382.305    -618.917     941.865
  N      382.635    -618.650     943.167
  O      384.919    -617.847     938.705
  O      383.124    -616.070     939.154
  H      386.270    -618.346     944.748
  H      382.685    -616.563     938.436
  H      381.329    -622.976     945.237
  H      382.452    -618.197     941.067
  H      382.858    -617.307     944.731
  H      385.148    -618.088     942.808
  H      381.938    -622.278     947.382
  H      386.216    -616.011     943.262
  H      382.586    -620.684     947.602
  H      383.820    -614.491     943.379
  H      383.611    -614.809     940.900
  H      385.253    -614.366     941.407
  P      386.609    -615.153     945.692
  C      386.044    -612.739     944.992
  O      387.036    -613.756     945.023
  O      387.672    -616.197     945.747
  O      386.160    -614.693     947.169
  H      386.912    -614.853     947.777
  H      386.445    -611.863     944.526
  H      385.742    -612.505     945.991
  H      385.198    -613.083     944.435

 6  7  8  9  10  11  12  13  14  15  26  29  33  34 0
 6-311+G(2d,p)
 ****
 36  38  39  40  41 0
 6-311+G(2d,p)
 ****
 1  2  3  4  5  16  17  18  19  20  21  22  23  24  25 0
 3-21G
 ****
 27  28  30  31  32  35  37  42  43  44  45  46  47 0
 3-21G
 ****
 48  49 0
 3-21G
 ****


