%nproc=1
%NoSave
%Mem=1900MB
#P OB98/GEN NMR

erre ene a

0 1
  C      184.014     256.850     118.526
  O      183.630     258.148     118.107
  P      183.899     259.368     119.116
  C      181.421     260.113     118.847
  O      182.474     259.764     119.737
  C      180.169     260.495     119.636
  O      179.692     259.377     120.410
  C      180.387     261.615     120.644
  O      180.354     262.901     120.040
  C      179.182     261.429     121.553
  O      178.014     262.013     120.948
  C      179.051     259.899     121.601
  N      178.743     259.465     126.630
  C      177.826     259.973     125.733
  N      176.694     260.487     126.251
  N      178.003     259.967     124.434
  C      179.188     259.428     124.056
  C      180.172     258.891     124.855
  C      179.969     258.912     126.288
  O      180.764     258.529     127.136
  N      181.225     258.429     124.108
  C      180.880     258.682     122.862
  N      179.671     259.325     122.781
  O      184.226     260.592     118.137
  O      184.991     259.130     120.102
  H      177.241     261.548     121.332
  H      184.666     261.306     118.632
  H      178.564     259.495     127.622
  H      181.474     258.432     121.993
  H      178.007     259.575     121.577
  H      179.306     261.905     122.530
  H      176.526     260.580     127.242
  H      181.305     261.462     121.221
  H      176.034     260.926     125.618
  H      179.388     260.768     118.916
  H      181.201     259.264     118.201
  H      181.742     260.952     118.223
  P      180.946     264.116     120.901
  C      178.693     265.378     120.605
  O      179.669     264.878     121.499
  O      181.498     265.117     119.780
  O      182.001     263.728     121.882
  H      182.220     265.667     120.138
  H      177.791     265.617     121.171
  H      178.441     264.637     119.841
  H      179.058     266.290     120.128
  H      183.776     256.143     117.759
  H      183.488     256.594     119.422
  H      185.067     256.833     118.713

 3  4  5  6  7  8  9  10  11  12  23  26  30  31 0
 6-311+G(2d,p)
 ****
 33  35  36  37  38 0
 6-311+G(2d,p)
 ****
 1  2  13  14  15  16  17  18  19  20  21  22  24  25 0
 3-21G
 ****
 27  28  29  32  34  39  40  41  42  43  44  45  46  47  48  49 0
 3-21G
 ****


