%nproc=1
%NoSave
%Mem=1900MB
#P OB98/GEN NMR

erre ene a

0 1
  C      274.274      68.467     366.153
  O      274.707      67.161     365.817
  P      274.403      65.907     366.767
  C      274.153      64.490     364.632
  O      274.779      64.605     365.902
  C      274.839      63.436     363.764
  O      276.153      63.917     363.361
  C      275.036      62.071     364.447
  O      274.909      61.085     363.417
  C      276.471      62.153     364.935
  O      277.033      60.875     365.210
  C      277.122      62.927     363.778
  N      278.390      63.534     364.175
  C      279.558      62.867     363.781
  O      279.485      61.781     363.201
  N      280.776      63.415     364.102
  C      280.821      64.480     364.840
  N      282.057      64.978     365.121
  C      279.621      65.140     365.382
  C      278.450      64.633     365.002
  O      273.043      65.884     367.377
  O      275.584      65.952     367.846
  H      276.416      60.385     365.797
  H      275.408      66.658     368.521
  H      279.711      65.994     366.040
  H      277.514      65.051     365.347
  H      277.305      62.265     362.924
  H      276.513      62.742     365.860
  H      274.324      61.883     365.256
  H      274.247      63.312     362.848
  H      282.855      64.504     364.719
  H      274.227      65.462     364.131
  H      282.203      65.845     365.618
  H      273.088      64.258     364.759
  P      273.844      59.891     363.537
  C      274.569      59.231     361.170
  O      274.285      58.768     362.479
  O      272.412      60.309     363.453
  O      274.172      59.203     364.949
  H      273.422      58.639     365.218
  H      275.116      58.450     360.631
  H      275.183      60.137     361.200
  H      273.637      59.442     360.641
  H      274.579      69.151     365.389
  H      274.709      68.758     367.086
  H      273.207      68.478     366.237

 3  4  5  6  7  8  9  10  11  12  13  23  27  28  29  30  32 0
 6-311+G(2d,p)
 ****
 34  35 0
 6-311+G(2d,p)
 ****
 1  2  14  15  16  17  18  19  20  21  22  24  25  26 0
 3-21G
 ****
 31  33  36  37  38  39  40  41  42  43  44  45  46 0
 3-21G
 ****


