%nproc=1
%NoSave
%Mem=1900MB
#P OB98/GEN NMR

erre ene a

0 1
  C       80.672      83.724     342.020
  O       81.396      84.784     342.607
  H       80.601      83.901     340.944
  H       79.662      83.685     342.437
  H       81.182      82.774     342.190
  P       81.644      84.714     344.193
  C       84.214      85.112     344.319
  O       82.913      85.669     344.456
  C       84.735      85.319     342.894
  O       84.531      86.700     342.509
  C       86.226      85.010     342.744
  O       86.439      84.280     341.534
  C       86.886      86.375     342.672
  O       88.122      86.343     341.963
  C       85.782      87.228     342.034
  N       85.926      88.643     342.369
  C       87.055      89.300     341.871
  O       87.881      88.683     341.193
  N       87.250      90.618     342.193
  C       86.426      91.214     342.995
  N       86.688      92.514     343.293
  C       85.248      90.547     343.582
  C       85.058      89.279     343.229
  O       82.231      83.242     344.400
  O       80.452      85.018     345.037
  H       88.377      87.269     341.757
  H       82.231      82.984     345.353
  H       84.597      91.084     344.261
  H       84.218      88.708     343.614
  H       85.799      87.125     340.938
  H       87.092      86.733     343.688
  H       86.625      84.431     343.576
  H       84.133      84.712     342.210
  H       87.511      92.935     342.880
  H       84.167      84.041     344.540
  H       86.130      93.066     343.930
  H       84.888      85.597     345.031
  P       86.622      82.694     341.692
  C       86.046      81.951     339.277
  O       87.056      82.112     340.259
  O       85.128      82.160     341.889
  O       87.519      82.307     342.822
  H       84.942      82.003     342.834
  H       86.479      81.558     338.381
  H       85.596      82.899     339.069
  H       85.301      81.274     339.640

 6  7  8  9  10  11  12  13  14  15  16  26  30  31  32  33  35 0
 6-311+G(2d,p)
 ****
 37  38 0
 6-311+G(2d,p)
 ****
 1  2  3  4  5  17  18  19  20  21  22  23  24  25 0
 3-21G
 ****
 27  28  29  34  36  39  40  41  42  43  44  45  46 0
 3-21G
 ****


