%nproc=1
%NoSave
%Mem=1900MB
#P OB98/GEN NMR

erre ene a

0 1
  C       36.075     -31.725     376.968
  O       35.520     -32.620     376.019
  H       36.541     -30.892     376.434
  H       36.843     -32.223     377.568
  H       35.292     -31.332     377.621
  P       34.914     -34.005     376.549
  C       37.255     -35.105     376.581
  O       36.108     -34.725     377.335
  C       37.915     -36.331     377.210
  O       38.180     -36.092     378.604
  C       37.040     -37.574     377.157
  O       37.034     -38.134     375.857
  C       37.687     -38.422     378.231
  O       38.870     -39.074     377.745
  C       38.044     -37.357     379.294
  N       37.052     -37.273     380.361
  C       37.244     -38.126     381.452
  O       38.208     -38.891     381.481
  N       36.323     -38.101     382.471
  C       35.316     -37.290     382.418
  N       34.441     -37.322     383.459
  C       35.082     -36.363     381.296
  C       35.979     -36.407     380.310
  O       34.227     -34.873     375.539
  O       33.923     -33.558     377.727
  H       39.525     -38.364     377.601
  H       33.030     -33.390     377.376
  H       34.230     -35.701     381.295
  H       35.885     -35.755     379.447
  H       39.017     -37.577     379.749
  H       37.011     -39.194     378.595
  H       36.022     -37.334     377.481
  H       38.877     -36.500     376.708
  H       34.633     -37.980     384.202
  H       37.945     -34.255     376.593
  H       33.674     -36.673     383.570
  H       36.982     -35.316     375.540
  P       35.701     -38.792     375.258
  C       36.466     -41.242     375.548
  O       35.566     -40.219     375.984
  O       35.615     -38.819     373.770
  O       34.534     -37.936     375.949
  H       34.460     -37.034     375.548
  H       36.281     -42.139     376.101
  H       37.474     -40.924     375.712
  H       36.316     -41.428     374.505

 6  7  8  9  10  11  12  13  14  15  16  26  30  31  32  33  35 0
 6-311+G(2d,p)
 ****
 37  38 0
 6-311+G(2d,p)
 ****
 1  2  3  4  5  17  18  19  20  21  22  23  24  25 0
 3-21G
 ****
 27  28  29  34  36  39  40  41  42  43  44  45  46 0
 3-21G
 ****


