%nproc=1
%NoSave
%Mem=1900MB
#P OB98/GEN NMR

erre ene a

0 1
  C     -451.996     171.239      85.956
  O     -450.886     171.787      85.266
  P     -450.179     170.974      84.076
  C     -452.094     171.706      82.521
  O     -451.333     170.611      83.021
  C     -452.392     171.525      81.034
  O     -453.321     172.554      80.616
  C     -451.156     171.635      80.149
  O     -451.282     170.715      79.062
  C     -451.216     173.048      79.591
  O     -450.523     173.140      78.334
  C     -452.727     173.273      79.516
  N     -455.150     177.224      77.304
  C     -455.014     175.931      76.932
  N     -454.336     174.944      77.557
  C     -453.806     175.389      78.705
  C     -453.859     176.677      79.214
  C     -454.569     177.625      78.457
  N     -454.717     178.942      78.848
  N     -453.164     176.765      80.409
  C     -452.719     175.543      80.620
  N     -453.086     174.675      79.626
  O     -449.355     169.813      84.511
  O     -449.310     172.067      83.300
  H     -449.572     172.984      78.519
  H     -448.461     171.681      83.009
  H     -455.520     175.656      76.013
  H     -452.117     175.241      81.464
  H     -453.153     172.881      78.582
  H     -450.737     173.739      80.289
  H     -450.224     171.443      80.695
  H     -452.889     170.560      80.893
  H     -451.510     172.622      82.664
  H     -455.343     179.512      78.305
  H     -454.435     179.195      79.785
  H     -453.020     171.798      83.095
  P     -449.899     170.142      78.463
  C     -449.560     168.504      80.461
  O     -449.091     169.625      79.741
  O     -449.217     171.125      77.573
  O     -450.411     168.813      77.723
  H     -451.249     168.478      78.120
  H     -448.895     168.334      81.313
  H     -449.544     167.615      79.824
  H     -450.573     168.685      80.826
  H     -452.323     171.926      86.708
  H     -451.710     170.317      86.416
  H     -452.793     171.060      85.265

 3  4  5  6  7  8  9  10  11  12  22  25  29  30  31  32 0
 6-311+G(2d,p)
 ****
 33  36  37 0
 6-311+G(2d,p)
 ****
 1  2  13  14  15  16  17  18  19  20  21  23  24  26 0
 3-21G
 ****
 27  28  34  35  38  39  40  41  42  43  44  45  46  47  48 0
 3-21G
 ****


