%nproc=1
%NoSave
%Mem=1900MB
#P OB98/GEN NMR

erre ene a

0 1
  C       19.518     -34.338     -20.862
  O       20.699     -35.088     -20.642
  P       20.570     -36.541     -19.983
  C       19.302     -38.726     -20.596
  O       19.394     -37.319     -20.748
  C       17.840     -39.175     -20.655
  O       17.181     -38.840     -19.397
  C       17.031     -38.518     -21.783
  O       16.068     -39.479     -22.239
  C       16.320     -37.389     -21.061
  O       15.184     -36.905     -21.761
  C       16.004     -38.077     -19.729
  N       15.656     -37.132     -18.669
  C       14.342     -37.137     -18.216
  O       13.466     -37.882     -18.652
  N       14.036     -36.199     -17.267
  C       14.868     -35.222     -16.805
  O       14.498     -34.338     -16.041
  C       16.245     -35.266     -17.319
  C       16.571     -36.203     -18.212
  O       19.949     -36.236     -18.541
  O       21.852     -37.300     -19.891
  H       14.511     -37.609     -21.749
  H       20.647     -36.251     -17.860
  H       13.090     -36.195     -16.919
  H       16.938     -34.518     -16.957
  H       17.574     -36.246     -18.624
  H       15.184     -38.795     -19.860
  H       17.013     -36.551     -20.924
  H       17.645     -38.168     -22.617
  H       17.814     -40.267     -20.754
  H       19.725     -39.011     -19.631
  H       19.889     -39.220     -21.378
  P       15.565     -39.373     -23.761
  C       16.804     -39.530     -26.057
  O       16.876     -39.265     -24.673
  O       14.963     -37.888     -23.774
  O       14.574     -40.424     -24.141
  H       15.531     -37.250     -23.312
  H       15.846     -39.214     -26.478
  H       16.937     -40.601     -26.228
  H       17.607     -38.989     -26.563
  H       19.770     -33.397     -21.305
  H       19.022     -34.171     -19.929
  H       18.869     -34.879     -21.519

 3  4  5  6  7  8  9  10  11  12  13  23  28  29  30  31  32 0
 6-311+G(2d,p)
 ****
 33  34 0
 6-311+G(2d,p)
 ****
 1  2  14  15  16  17  18  19  20  21  22  24  25  26 0
 3-21G
 ****
 27  35  36  37  38  39  40  41  42  43  44  45 0
 3-21G
 ****


