%nproc=1
%NoSave
%Mem=1900MB
#P OB98/GEN NMR

erre ene a

0 1
  C     -217.300     623.621     402.362
  O     -217.395     623.863     400.955
  P     -218.283     622.823     400.115
  C     -219.720     622.960     397.954
  O     -218.658     623.514     398.710
  C     -220.263     623.974     396.940
  O     -221.031     625.030     397.583
  C     -219.172     624.681     396.148
  O     -218.724     623.838     395.098
  C     -219.900     625.930     395.645
  O     -220.650     625.646     394.449
  C     -220.845     626.249     396.819
  N     -222.323     630.195     399.646
  C     -223.056     629.408     398.766
  N     -224.367     629.700     398.649
  N     -222.537     628.428     398.080
  C     -221.208     628.247     398.302
  C     -220.396     628.937     399.168
  C     -220.967     630.031     399.926
  O     -220.375     630.737     400.727
  N     -219.111     628.423     399.159
  C     -219.141     627.508     398.206
  N     -220.410     627.317     397.703
  O     -219.670     622.780     400.905
  O     -217.667     621.468     400.012
  H     -220.973     626.484     394.075
  H     -219.769     621.917     401.354
  H     -222.765     630.947     400.141
  H     -218.293     626.943     397.874
  H     -221.843     626.538     396.459
  H     -219.198     626.724     395.399
  H     -224.834     630.454     399.160
  H     -218.346     624.959     396.817
  H     -224.926     629.139     398.019
  H     -220.940     623.438     396.260
  H     -220.524     622.631     398.619
  H     -219.356     622.056     397.435
  P     -217.165     623.452     395.067
  C     -216.296     621.137     394.255
  O     -216.969     622.332     393.932
  O     -216.965     622.644     396.442
  O     -216.230     624.616     394.988
  H     -216.140     622.933     396.875
  H     -216.679     620.326     393.632
  H     -216.430     620.866     395.316
  H     -215.221     621.259     394.052
  H     -216.687     624.373     402.813
  H     -216.864     622.658     402.530
  H     -218.278     623.650     402.796

 3  4  5  6  7  8  9  10  11  12  23  26  30  31 0
 6-311+G(2d,p)
 ****
 33  35  36  37  38 0
 6-311+G(2d,p)
 ****
 1  2  13  14  15  16  17  18  19  20  21  22  24  25 0
 3-21G
 ****
 27  28  29  32  34  39  40  41  42  43  44  45  46  47  48  49 0
 3-21G
 ****


