%nproc=1
%NoSave
%Mem=1900MB
#P OB98/GEN NMR

erre ene a

0 1
  C     -508.010     -78.722     260.030
  O     -507.461     -78.855     258.712
  P     -505.880     -78.643     258.547
  C     -505.590     -77.359     256.281
  O     -505.615     -78.604     256.966
  C     -505.303     -77.585     254.796
  O     -504.132     -78.423     254.627
  C     -506.415     -78.291     254.044
  O     -507.512     -77.419     253.801
  C     -505.679     -78.754     252.796
  O     -505.563     -77.673     251.855
  C     -504.285     -79.115     253.362
  N     -504.081     -80.546     253.503
  C     -503.793     -81.240     252.334
  O     -503.728     -80.695     251.229
  N     -503.590     -82.586     252.468
  C     -503.679     -83.302     253.628
  O     -503.483     -84.505     253.691
  C     -504.044     -82.523     254.826
  C     -504.221     -81.203     254.712
  O     -505.331     -80.066     259.007
  O     -505.364     -77.479     259.323
  H     -505.913     -80.804     258.754
  H     -506.422     -77.626     251.378
  H     -503.364     -83.102     251.627
  H     -504.147     -83.056     255.759
  H     -504.492     -80.616     255.585
  H     -503.500     -78.720     252.706
  H     -506.189     -79.577     252.287
  H     -506.760     -79.162     254.617
  H     -505.091     -76.608     254.335
  H     -504.811     -76.715     256.706
  H     -506.550     -76.854     256.425
  P     -508.979     -77.998     254.106
  C     -510.274     -76.635     252.288
  O     -510.015     -76.861     253.662
  O     -509.010     -77.934     255.710
  O     -509.225     -79.354     253.541
  H     -508.650     -77.107     256.068
  H     -511.225     -76.102     252.196
  H     -510.350     -77.577     251.738
  H     -509.482     -76.022     251.860
  H     -509.067     -78.888     259.995
  H     -507.815     -77.737     260.400
  H     -507.558     -79.442     260.679

 3  4  5  6  7  8  9  10  11  12  13  24  28  29  30  31  32 0
 6-311+G(2d,p)
 ****
 33  34 0
 6-311+G(2d,p)
 ****
 1  2  14  15  16  17  18  19  20  21  22  23  25  26  27 0
 3-21G
 ****
 35  36  37  38  39  40  41  42  43  44  45 0
 3-21G
 ****


