%nproc=1
%NoSave
%Mem=1900MB
#P OB98/GEN NMR

erre ene a

0 1
  C      111.179    -195.512     -51.361
  O      110.508    -194.395     -51.907
  H      110.438    -196.273     -51.107
  H      111.715    -195.229     -50.451
  H      111.876    -195.931     -52.092
  P      111.363    -193.100     -52.306
  C      112.769    -193.642     -54.406
  O      111.537    -193.135     -53.904
  C      112.991    -193.165     -55.847
  O      111.724    -193.269     -56.546
  C      113.463    -191.704     -55.915
  O      114.649    -191.540     -56.691
  C      112.210    -190.955     -56.353
  O      112.465    -189.743     -57.033
  C      111.445    -192.001     -57.168
  N      110.003    -191.763     -57.228
  C      109.550    -190.778     -58.105
  O      110.269    -190.101     -58.836
  N      108.194    -190.581     -58.120
  C      107.271    -191.245     -57.363
  O      106.069    -191.026     -57.428
  C      107.812    -192.253     -56.439
  C      109.131    -192.463     -56.413
  O      112.633    -192.906     -51.546
  O      110.351    -191.880     -52.083
  H      113.045    -189.956     -57.795
  H      110.595    -191.400     -51.268
  H      107.852    -189.880     -58.761
  H      107.109    -192.787     -55.814
  H      109.563    -193.201     -55.744
  H      111.816    -192.034     -58.194
  H      111.626    -190.704     -55.459
  H      113.763    -191.347     -54.922
  H      113.698    -193.843     -56.337
  H      112.719    -194.737     -54.371
  H      113.594    -193.303     -53.772
  P      116.091    -191.196     -56.102
  C      117.662    -193.304     -56.041
  O      117.162    -192.184     -56.759
  O      116.165    -191.012     -54.622
  O      116.451    -189.776     -56.783
  H      116.999    -189.289     -56.133
  H      118.363    -193.835     -56.651
  H      116.851    -193.953     -55.782
  H      118.148    -192.968     -55.149

 6  7  8  9  10  11  12  13  14  15  16  26  31  32  33  34  35 0
 6-311+G(2d,p)
 ****
 36  37 0
 6-311+G(2d,p)
 ****
 1  2  3  4  5  17  18  19  20  21  22  23  24  25 0
 3-21G
 ****
 27  28  29  30  38  39  40  41  42  43  44  45 0
 3-21G
 ****


