%nproc=1
%NoSave
%Mem=1900MB
#P OB98/GEN NMR

erre ene a

0 1
  C      467.714    -289.731     104.647
  O      466.588    -290.494     104.247
  P      465.737    -291.332     105.309
  C      463.697    -291.397     103.657
  O      464.562    -292.081     104.537
  C      462.824    -292.425     102.919
  O      463.601    -293.100     101.908
  C      462.267    -293.478     103.871
  O      460.966    -293.116     104.309
  C      462.294    -294.736     103.022
  O      461.149    -294.789     102.159
  C      463.586    -294.524     102.194
  N      464.878    -294.886     102.812
  C      465.328    -296.202     102.740
  O      464.724    -297.103     102.159
  N      466.505    -296.461     103.395
  C      467.278    -295.541     104.053
  O      468.183    -295.825     104.825
  C      466.891    -294.140     103.857
  C      465.717    -293.884     103.273
  O      464.970    -290.187     106.128
  O      466.528    -292.227     106.205
  H      460.355    -294.704     102.721
  H      465.430    -289.999     106.969
  H      466.771    -297.443     103.467
  H      467.542    -293.368     104.234
  H      465.391    -292.852     103.150
  H      463.525    -295.059     101.238
  H      462.244    -295.622     103.643
  H      462.943    -293.613     104.720
  H      462.006    -291.895     102.411
  H      464.276    -290.807     102.944
  H      463.063    -290.703     104.220
  P      460.531    -293.399     105.825
  C      459.383    -291.106     105.887
  O      459.228    -292.504     106.072
  O      461.616    -293.246     106.839
  O      459.975    -294.901     105.770
  H      460.676    -295.522     106.065
  H      458.395    -290.640     105.901
  H      459.866    -290.897     104.928
  H      459.991    -290.699     106.700
  H      468.140    -289.249     103.792
  H      468.442    -290.376     105.093
  H      467.410    -288.992     105.358

 3  4  5  6  7  8  9  10  11  12  13  23  28  29  30  31  32 0
 6-311+G(2d,p)
 ****
 33  34 0
 6-311+G(2d,p)
 ****
 1  2  14  15  16  17  18  19  20  21  22  24  25  26  27 0
 3-21G
 ****
 35  36  37  38  39  40  41  42  43  44  45 0
 3-21G
 ****


