%nproc=1
%NoSave
%Mem=1900MB
#P OB98/GEN NMR

erre ene a

0 1
  C     -582.734    -155.044     -28.730
  O     -582.904    -154.982     -27.331
  H     -583.278    -154.210     -29.180
  H     -583.140    -155.975     -29.128
  H     -581.675    -154.953     -28.989
  P     -582.370    -156.197     -26.427
  C     -584.501    -157.625     -26.458
  O     -583.173    -157.493     -26.953
  C     -585.465    -158.072     -27.557
  O     -585.025    -159.341     -28.108
  C     -586.912    -158.254     -27.078
  O     -587.803    -157.625     -28.001
  C     -587.110    -159.762     -27.095
  O     -588.482    -160.120     -27.218
  C     -586.197    -160.161     -28.261
  N     -585.863    -161.581     -28.259
  C     -586.926    -162.472     -28.433
  O     -588.077    -162.050     -28.540
  N     -586.669    -163.822     -28.440
  C     -585.458    -164.245     -28.239
  N     -585.274    -165.593     -28.250
  C     -584.318    -163.343     -28.009
  C     -584.584    -162.037     -28.037
  O     -582.454    -155.964     -24.954
  O     -580.879    -156.462     -26.949
  H     -588.544    -161.102     -27.253
  H     -580.372    -156.956     -26.256
  H     -583.328    -163.747     -27.837
  H     -583.802    -161.302     -27.885
  H     -586.664    -159.918     -29.225
  H     -586.727    -160.191     -26.159
  H     -587.092    -157.841     -26.086
  H     -585.408    -157.345     -28.378
  H     -586.085    -166.179     -28.415
  H     -584.819    -156.665     -26.036
  H     -584.379    -166.038     -28.099
  H     -584.496    -158.381     -25.664
  P     -588.078    -156.057     -27.761
  C     -590.549    -155.984     -26.996
  O     -589.186    -155.917     -26.610
  O     -588.843    -155.613     -29.095
  O     -586.831    -155.261     -27.545
  H     -588.230    -155.169     -29.701
  H     -591.170    -155.876     -26.131
  H     -590.743    -156.929     -27.459
  H     -590.763    -155.197     -27.689

 6  7  8  9  10  11  12  13  14  15  16  26  30  31  32  33  35 0
 6-311+G(2d,p)
 ****
 37  38 0
 6-311+G(2d,p)
 ****
 1  2  3  4  5  17  18  19  20  21  22  23  24  25 0
 3-21G
 ****
 27  28  29  34  36  39  40  41  42  43  44  45  46 0
 3-21G
 ****


