%nproc=1
%NoSave
%Mem=1900MB
#P OB98/GEN NMR

erre ene a

0 1
  C      -87.664     101.372     -44.751
  O      -86.486     100.603     -44.650
  H      -87.404     102.427     -44.635
  H      -88.358     101.091     -43.953
  H      -88.146     101.235     -45.722
  P      -86.517      99.078     -45.133
  C      -85.431      99.397     -47.453
  O      -85.285      98.875     -46.142
  C      -84.076      99.491     -48.165
  O      -83.289     100.551     -47.571
  C      -83.286      98.193     -47.981
  O      -82.398      97.946     -49.067
  C      -82.473      98.469     -46.725
  O      -81.319      97.641     -46.615
  C      -82.163      99.954     -46.900
  N      -80.378     104.165     -44.655
  C      -80.335     103.799     -45.986
  N      -79.716     104.659     -46.826
  N      -80.840     102.685     -46.448
  C      -81.361     101.889     -45.483
  C      -81.438     102.130     -44.131
  C      -80.913     103.385     -43.639
  O      -80.906     103.754     -42.467
  N      -82.019     101.079     -43.466
  C      -82.285     100.201     -44.411
  N      -81.917     100.652     -45.655
  O      -87.782      99.015     -46.115
  O      -86.618      98.054     -44.044
  H      -80.970      97.743     -45.710
  H      -88.132      98.108     -46.161
  H      -79.988     105.041     -44.356
  H      -82.744      99.233     -44.251
  H      -81.279     100.093     -47.537
  H      -83.103      98.264     -45.856
  H      -79.165     105.435     -46.493
  H      -83.939      97.329     -47.853
  H      -79.419     104.281     -47.729
  H      -84.219      99.752     -49.219
  H      -85.872     100.396     -47.356
  H      -86.128      98.785     -48.030
  P      -82.857      96.878     -50.171
  C      -82.756      98.234     -52.415
  O      -82.160      97.278     -51.558
  O      -84.403      97.215     -50.397
  O      -82.644      95.461     -49.760
  H      -84.961      96.538     -49.970
  H      -82.145      98.364     -53.284
  H      -82.847      99.167     -51.900
  H      -83.727      97.893     -52.709

 6  7  8  9  10  11  12  13  14  15  26  29  33  34 0
 6-311+G(2d,p)
 ****
 36  38  39  40  41 0
 6-311+G(2d,p)
 ****
 1  2  3  4  5  16  17  18  19  20  21  22  23  24  25 0
 3-21G
 ****
 27  28  30  31  32  35  37  42  43  44  45  46  47 0
 3-21G
 ****
 48  49 0
 3-21G
 ****


