%nproc=1
%NoSave
%Mem=1900MB
#P OB98/GEN NMR

erre ene a

0 1
  C     -568.962     668.952     372.416
  O     -568.721     670.214     373.046
  P     -569.521     670.574     374.387
  C     -568.044     669.596     376.259
  O     -568.453     670.770     375.567
  C     -566.686     669.809     376.939
  O     -565.598     669.699     376.003
  C     -566.546     671.188     377.569
  O     -567.299     671.278     378.761
  C     -565.031     671.281     377.753
  O     -564.619     670.605     378.939
  C     -564.514     670.528     376.501
  N     -564.007     671.412     375.459
  C     -562.621     671.612     375.449
  O     -561.912     671.088     376.311
  N     -562.075     672.412     374.484
  C     -562.852     672.969     373.598
  N     -562.259     673.756     372.652
  C     -564.319     672.791     373.576
  C     -564.820     672.021     374.528
  O     -570.671     669.679     374.714
  O     -570.020     672.076     374.117
  H     -564.980     671.134     379.687
  H     -570.855     672.220     374.590
  H     -564.916     673.277     372.815
  H     -565.885     671.839     374.599
  H     -563.703     669.848     376.783
  H     -564.694     672.329     377.821
  H     -566.886     671.958     376.848
  H     -566.562     669.037     377.714
  H     -561.252     673.869     372.691
  H     -567.971     668.766     375.547
  H     -562.770     674.185     371.891
  H     -568.811     669.322     376.987
  P     -567.968     672.693     379.108
  C     -570.474     672.450     378.507
  O     -569.494     672.434     379.523
  O     -568.095     673.403     377.670
  O     -567.187     673.548     380.061
  H     -567.967     674.364     377.765
  H     -571.379     671.953     378.889
  H     -570.136     671.927     377.618
  H     -570.721     673.487     378.260
  H     -568.354     668.869     371.540
  H     -569.994     668.882     372.142
  H     -568.719     668.162     373.095

 3  4  5  6  7  8  9  10  11  12  13  23  27  28  29  30  32 0
 6-311+G(2d,p)
 ****
 34  35 0
 6-311+G(2d,p)
 ****
 1  2  14  15  16  17  18  19  20  21  22  24  25  26 0
 3-21G
 ****
 31  33  36  37  38  39  40  41  42  43  44  45  46 0
 3-21G
 ****


