%nproc=1
%NoSave
%Mem=1900MB
#P OB98/GEN NMR

erre ene a

0 1
  C       53.496     -13.303      31.085
  O       53.291     -11.988      31.562
  H       54.561     -13.551      31.108
  H       52.959     -14.001      31.732
  H       53.111     -13.401      30.064
  P       53.979     -10.805      30.723
  C       55.970     -10.750      32.389
  O       55.552     -10.890      31.039
  C       57.447     -11.115      32.521
  O       57.665     -12.476      32.094
  C       58.391     -10.265      31.674
  O       58.661      -9.011      32.286
  C       59.628     -11.151      31.655
  O       60.349     -11.008      32.894
  C       59.013     -12.557      31.563
  N       61.740     -14.520      27.701
  C       62.079     -14.177      28.963
  N       61.294     -13.680      29.941
  C       60.026     -13.564      29.513
  C       59.521     -13.892      28.265
  C       60.441     -14.390      27.326
  N       60.093     -14.673      26.013
  N       58.169     -13.618      28.195
  C       57.868     -13.115      29.374
  N       58.954     -13.068      30.206
  O       53.502      -9.490      31.508
  O       53.610     -10.753      29.277
  H       61.126     -11.595      32.836
  H       52.728      -9.109      31.054
  H       63.125     -14.316      29.222
  H       56.885     -12.768      29.666
  H       59.558     -13.286      32.173
  H       60.323     -10.902      30.846
  H       58.019     -10.145      30.650
  H       57.715     -11.054      33.584
  H       55.376     -11.415      33.026
  H       60.861     -14.560      25.358
  H       59.192     -14.305      25.730
  H       55.806      -9.716      32.702
  P       59.298      -7.858      31.367
  C       61.584      -8.336      32.482
  O       60.871      -8.173      31.262
  O       59.231      -6.570      32.318
  O       58.599      -7.612      30.075
  H       58.741      -5.855      31.870
  H       62.613      -8.540      32.269
  H       61.165      -9.152      33.033
  H       61.510      -7.439      33.061

 6  7  8  9  10  11  12  13  14  15  25  28  32  33  34  35 0
 6-311+G(2d,p)
 ****
 36  39  40 0
 6-311+G(2d,p)
 ****
 1  2  3  4  5  16  17  18  19  20  21  22  23  24 0
 3-21G
 ****
 26  27  29  30  31  37  38  41  42  43  44  45  46  47  48 0
 3-21G
 ****


