%nproc=1
%NoSave
%Mem=1900MB
#P OB98/GEN NMR

erre ene a

0 1
  C       71.655    -303.042       1.848
  O       72.021    -303.773       3.032
  P       73.463    -304.479       3.098
  C       72.489    -306.299       4.708
  O       73.536    -305.379       4.424
  C       72.812    -307.084       5.980
  O       74.014    -307.869       5.804
  C       73.078    -306.220       7.206
  O       71.879    -305.708       7.765
  C       73.800    -307.207       8.118
  O       72.859    -308.034       8.824
  C       74.610    -308.042       7.107
  N       76.027    -307.685       7.099
  C       76.768    -308.057       8.221
  O       76.267    -308.596       9.204
  N       78.100    -307.750       8.182
  C       78.740    -307.066       7.188
  O       79.938    -306.805       7.223
  C       77.892    -306.630       6.066
  C       76.595    -306.950       6.074
  O       74.420    -303.248       3.483
  O       73.927    -305.131       1.837
  H       73.383    -308.724       9.281
  H       75.319    -303.414       3.137
  H       78.659    -308.036       8.971
  H       78.358    -306.064       5.266
  H       75.960    -306.638       5.256
  H       74.522    -309.110       7.343
  H       74.411    -306.703       8.872
  H       73.766    -305.409       6.943
  H       71.979    -307.778       6.175
  H       72.388    -306.999       3.870
  H       71.550    -305.747       4.820
  P       71.854    -304.135       8.089
  C       70.632    -304.629      10.343
  O       70.646    -303.935       9.119
  O       71.317    -303.545       6.699
  O       73.181    -303.601       8.518
  H       70.692    -304.152       6.259
  H       71.647    -304.782      10.735
  H       70.154    -305.601      10.204
  H       70.060    -304.050      11.077
  H       70.671    -302.638       1.968
  H       71.670    -303.699       1.004
  H       72.351    -302.245       1.692

 3  4  5  6  7  8  9  10  11  12  13  23  28  29  30  31  32 0
 6-311+G(2d,p)
 ****
 33  34 0
 6-311+G(2d,p)
 ****
 1  2  14  15  16  17  18  19  20  21  22  24  25  26 0
 3-21G
 ****
 27  35  36  37  38  39  40  41  42  43  44  45 0
 3-21G
 ****


