%nproc=1
%NoSave
%Mem=1900MB
#P OB98/GEN NMR

erre ene a

0 1
  C       77.485      94.500     110.955
  O       77.848      94.187     109.622
  P       78.800      95.227     108.854
  C       77.440      95.620     106.672
  O       78.550      94.976     107.291
  C       77.473      95.399     105.162
  O       78.716      95.879     104.620
  C       77.381      93.941     104.749
  O       76.049      93.479     104.844
  C       77.916      93.999     103.323
  O       76.870      94.315     102.391
  C       78.953      95.144     103.398
  N       80.322      94.664     103.323
  C       80.994      94.925     102.122
  O       80.415      95.511     101.205
  N       82.286      94.482     101.980
  C       82.851      93.832     102.950
  N       84.135      93.421     102.756
  C       82.172      93.520     104.222
  C       80.919      93.956     104.338
  O       80.262      94.632     109.101
  O       78.676      96.643     109.313
  H       76.247      93.560     102.426
  H       80.936      95.337     109.060
  H       82.689      92.974     104.999
  H       80.346      93.769     105.238
  H       78.796      95.854     102.576
  H       78.343      93.042     103.009
  H       78.043      93.323     105.367
  H       76.656      95.980     104.713
  H       84.571      93.645     101.871
  H       77.488      96.695     106.873
  H       84.669      92.929     103.457
  H       76.516      95.225     107.103
  P       75.716      92.389     105.969
  C       75.291      90.545     104.238
  O       74.728      91.349     105.255
  O       74.719      93.192     106.933
  O       76.869      91.805     106.714
  H       74.518      92.659     107.723
  H       74.564      89.783     103.949
  H       76.197      90.050     104.599
  H       75.525      91.159     103.364
  H       76.854      93.728     111.343
  H       76.960      95.432     110.972
  H       78.367      94.576     111.556

 3  4  5  6  7  8  9  10  11  12  13  21  23  27  28  29  30  32 0
 6-311+G(2d,p)
 ****
 34  35 0
 6-311+G(2d,p)
 ****
 1  2  14  15  16  17  18  19  20  22  24  25  26 0
 3-21G
 ****
 31  33  36  37  38  39  40  41  42  43  44  45  46 0
 3-21G
 ****


