%nproc=1
%NoSave
%Mem=1900MB
#P OB98/GEN NMR

erre ene a

0 1
  C      -61.256     794.326     -24.023
  O      -62.106     793.367     -23.406
  P      -62.886     793.809     -22.080
  C      -64.767     792.115     -22.651
  O      -63.823     792.564     -21.693
  C      -65.334     790.758     -22.260
  O      -65.816     790.793     -20.900
  C      -66.512     790.295     -23.103
  O      -66.107     789.704     -24.323
  C      -67.123     789.238     -22.185
  O      -66.373     788.021     -22.282
  C      -66.933     789.870     -20.808
  N      -71.133     789.543     -17.911
  C      -70.198     788.630     -18.236
  N      -69.117     788.789     -19.024
  C      -69.067     790.040     -19.525
  C      -69.974     791.059     -19.305
  C      -71.044     790.784     -18.446
  N      -71.982     791.726     -18.087
  N      -69.588     792.197     -19.987
  C      -68.472     791.873     -20.598
  N      -68.108     790.578     -20.340
  O      -63.926     794.901     -22.619
  O      -62.023     794.350     -20.986
  H      -66.520     787.657     -23.178
  H      -64.197     795.496     -21.890
  H      -70.327     787.645     -17.810
  H      -67.890     792.539     -21.222
  H      -66.667     789.123     -20.043
  H      -68.156     789.000     -22.443
  H      -67.238     791.105     -23.254
  H      -64.516     790.019     -22.309
  H      -64.282     792.036     -23.630
  H      -72.614     791.502     -17.331
  H      -71.806     792.695     -18.319
  H      -65.574     792.860     -22.732
  P      -67.115     789.858     -25.571
  C      -65.321     790.798     -27.203
  O      -66.195     789.732     -26.876
  O      -67.514     791.409     -25.524
  O      -68.307     788.966     -25.507
  H      -68.387     791.547     -25.941
  H      -64.569     790.430     -27.903
  H      -64.813     791.174     -26.311
  H      -65.887     791.611     -27.678
  H      -60.804     793.895     -24.892
  H      -60.493     794.622     -23.334
  H      -61.832     795.182     -24.308

 3  4  5  6  7  8  9  10  11  12  22  25  29  30  31  32 0
 6-311+G(2d,p)
 ****
 33  36  37 0
 6-311+G(2d,p)
 ****
 1  2  13  14  15  16  17  18  19  20  21  23  24  26 0
 3-21G
 ****
 27  28  34  35  38  39  40  41  42  43  44  45  46  47  48 0
 3-21G
 ****


