%nproc=1
%NoSave
%Mem=1900MB
#P OB98/GEN NMR

erre ene a

0 1
  C      -16.040      -7.120      10.221
  O      -16.108      -5.767       9.761
  P      -17.122      -4.788      10.529
  C      -15.381      -3.072      11.386
  O      -16.491      -3.311      10.533
  C      -14.889      -1.625      11.271
  O      -14.192      -1.413      10.011
  C      -16.012      -0.587      11.338
  O      -15.490       0.579      11.987
  C      -16.263      -0.261       9.879
  O      -16.940       0.985       9.728
  C      -14.835      -0.310       9.339
  N      -15.066       2.097       4.845
  C      -15.131       2.547       6.116
  N      -15.084       1.835       7.263
  C      -14.911       0.529       6.998
  C      -14.837      -0.079       5.756
  C      -14.924       0.766       4.637
  N      -14.886       0.306       3.342
  N      -14.707      -1.447       5.892
  C      -14.707      -1.657       7.193
  N      -14.797      -0.493       7.902
  O      -16.996      -5.257      12.055
  O      -18.531      -4.878      10.046
  H      -16.905       1.238       8.782
  H      -17.803      -5.732      12.323
  H      -15.240       3.623       6.228
  H      -14.652      -2.624       7.670
  H      -14.271       0.604       9.563
  H      -16.881      -1.044       9.423
  H      -16.917      -0.924      11.854
  H      -14.170      -1.441      12.078
  H      -14.561      -3.750      11.132
  H      -14.984       0.976       2.596
  H      -14.827      -0.687       3.174
  H      -15.663      -3.316      12.416
  P      -16.307       1.120      13.254
  C      -14.105       1.526      14.562
  O      -15.306       2.076      14.058
  O      -16.441      -0.169      14.195
  O      -17.638       1.708      12.917
  H      -17.225      -0.086      14.768
  H      -13.298       2.249      14.416
  H      -13.835       0.592      14.061
  H      -14.221       1.335      15.632
  H      -15.333      -7.663       9.629
  H      -17.004      -7.576      10.132
  H      -15.733      -7.133      11.246

 3  4  5  6  7  8  9  10  11  12  22  25  29  30  31  32 0
 6-311+G(2d,p)
 ****
 33  36  37 0
 6-311+G(2d,p)
 ****
 1  2  13  14  15  16  17  18  19  20  21  23  24  26 0
 3-21G
 ****
 27  28  34  35  38  39  40  41  42  43  44  45  46  47  48 0
 3-21G
 ****


