%nproc=1
%NoSave
%Mem=1900MB
#P OB98/GEN NMR

erre ene a

0 1
  C      173.333      27.254      39.090
  O      174.223      26.154      39.020
  P      174.787      25.539      40.385
  C      176.655      27.275      40.889
  O      176.335      25.950      40.501
  C      178.039      27.664      40.364
  O      178.346      29.031      40.773
  C      179.177      26.768      40.878
  O      180.156      26.671      39.833
  C      179.739      27.581      42.028
  O      181.057      27.201      42.391
  C      179.620      28.993      41.444
  N      179.728      30.040      42.458
  C      180.084      31.314      42.027
  O      180.312      31.605      40.854
  N      180.236      32.255      43.010
  C      180.158      32.033      44.354
  O      180.420      32.893      45.186
  C      179.779      30.668      44.751
  C      179.583      29.750      43.801
  O      174.833      23.968      40.088
  O      173.974      25.856      41.595
  H      181.296      27.702      43.192
  H      174.061      23.523      40.486
  H      180.484      33.186      42.715
  H      179.687      30.463      45.809
  H      179.323      28.731      44.067
  H      180.390      29.150      40.676
  H      179.098      27.458      42.909
  H      178.846      25.772      41.185
  H      178.012      27.653      39.266
  H      176.655      27.342      41.977
  H      175.892      27.964      40.510
  P      180.795      25.227      39.534
  C      183.195      26.092      40.097
  O      182.333      25.472      39.167
  O      180.111      24.886      38.125
  O      180.514      24.215      40.597
  H      180.100      25.645      37.520
  H      182.938      25.826      41.125
  H      183.135      27.176      39.978
  H      184.221      25.771      39.895
  H      173.049      27.546      38.101
  H      173.817      28.074      39.579
  H      172.461      26.973      39.643

 3  4  5  6  7  8  9  10  11  12  13  23  28  29  30  31  32 0
 6-311+G(2d,p)
 ****
 33  34 0
 6-311+G(2d,p)
 ****
 1  2  14  15  16  17  18  19  20  21  22  24  25  26 0
 3-21G
 ****
 27  35  36  37  38  39  40  41  42  43  44  45 0
 3-21G
 ****


