%nproc=1
%NoSave
%Mem=1900MB
#P OB98/GEN NMR

erre ene a

0 1
  C     -169.903      38.225      -2.663
  O     -171.272      37.921      -2.824
  H     -169.421      37.398      -2.137
  H     -169.795      39.134      -2.063
  H     -169.410      38.362      -3.628
  P     -172.135      38.780      -3.862
  C     -172.180      38.090      -6.349
  O     -172.604      37.783      -5.030
  C     -172.737      37.079      -7.358
  O     -171.974      35.851      -7.285
  C     -174.186      36.724      -7.013
  O     -174.939      36.357      -8.166
  C     -174.029      35.507      -6.113
  O     -175.203      34.703      -6.052
  C     -172.830      34.818      -6.761
  N     -171.420      30.084      -5.511
  C     -172.321      30.502      -6.470
  N     -172.943      29.531      -7.174
  N     -172.596      31.759      -6.706
  C     -171.955      32.617      -5.875
  C     -171.060      32.321      -4.872
  C     -170.732      30.930      -4.649
  O     -169.956      30.498      -3.800
  N     -170.631      33.457      -4.231
  C     -171.270      34.436      -4.839
  N     -172.075      33.978      -5.855
  O     -171.044      39.692      -4.602
  O     -173.230      39.612      -3.264
  H     -175.341      34.317      -6.937
  H     -171.459      40.500      -4.953
  H     -171.232      29.105      -5.382
  H     -171.182      35.487      -4.588
  H     -173.153      34.189      -7.601
  H     -173.822      35.857      -5.096
  H     -172.895      28.558      -6.911
  H     -174.697      37.538      -6.499
  H     -173.803      29.799      -7.662
  H     -172.628      37.462      -8.378
  H     -171.084      38.057      -6.352
  H     -172.478      39.106      -6.616
  P     -176.010      37.415      -8.719
  C     -174.421      38.721     -10.351
  O     -175.538      37.866     -10.184
  O     -175.762      38.707      -7.811
  O     -177.420      36.936      -8.647
  H     -176.480      38.802      -7.157
  H     -174.266      38.905     -11.393
  H     -173.551      38.256      -9.938
  H     -174.603      39.648      -9.848

 6  7  8  9  10  11  12  13  14  15  26  29  33  34 0
 6-311+G(2d,p)
 ****
 36  38  39  40  41 0
 6-311+G(2d,p)
 ****
 1  2  3  4  5  16  17  18  19  20  21  22  23  24  25 0
 3-21G
 ****
 27  28  30  31  32  35  37  42  43  44  45  46  47 0
 3-21G
 ****
 48  49 0
 3-21G
 ****


