%nproc=1
%NoSave
%Mem=1900MB
#P OB98/GEN NMR

erre ene a

0 1
  C       26.230      69.344     369.384
  O       27.255      68.467     369.803
  P       28.432      67.972     368.843
  C       29.761      70.139     369.389
  O       29.274      69.262     368.376
  C       31.288      70.313     369.351
  O       31.920      69.106     369.825
  C       31.755      70.507     367.903
  O       31.710      71.790     367.304
  C       33.113      69.815     367.833
  O       34.206      70.729     367.963
  C       33.081      68.848     369.018
  N       35.548      64.427     369.281
  C       35.717      65.564     370.050
  N       36.804      65.578     370.854
  N       34.908      66.591     370.010
  C       33.923      66.466     369.090
  C       33.645      65.381     368.282
  C       34.523      64.240     368.366
  O       34.459      63.247     367.643
  N       32.613      65.640     367.417
  C       32.289      66.892     367.669
  N       33.080      67.447     368.647
  O       28.079      66.939     367.820
  O       29.433      67.279     369.903
  H       35.005      70.291     367.625
  H       29.855      66.520     369.453
  H       36.248      63.697     369.301
  H       31.514      67.450     367.153
  H       33.951      69.001     369.668
  H       33.242      69.314     366.862
  H       37.526      64.875     370.801
  H       31.101      69.898     367.274
  H       37.051      66.456     371.294
  H       31.612      71.106     370.028
  H       29.443      69.734     370.356
  H       29.287      71.116     369.280
  P       31.424      72.109     365.765
  C       28.870      72.106     365.881
  O       30.020      71.457     365.367
  O       32.477      71.197     364.969
  O       31.588      73.544     365.382
  H       32.626      71.568     364.082
  H       28.016      71.428     365.809
  H       28.659      73.005     365.289
  H       29.016      72.391     366.930
  H       25.563      69.528     370.200
  H       25.690      68.900     368.574
  H       26.661      70.268     369.060

 3  4  5  6  7  8  9  10  11  12  23  26  30  31 0
 6-311+G(2d,p)
 ****
 33  35  36  37  38 0
 6-311+G(2d,p)
 ****
 1  2  13  14  15  16  17  18  19  20  21  22  24  25 0
 3-21G
 ****
 27  28  29  32  34  39  40  41  42  43  44  45  46  47  48  49 0
 3-21G
 ****


