%nproc=1
%NoSave
%Mem=1900MB
#P OB98/GEN NMR

erre ene a

0 1
  C       41.902     -85.972    -144.322
  O       43.095     -85.243    -144.114
  H       41.417     -85.603    -145.229
  H       41.224     -85.829    -143.477
  H       42.120     -87.036    -144.446
  P       44.026     -85.703    -142.894
  C       44.835     -83.336    -142.169
  O       45.171     -84.584    -142.755
  C       45.653     -82.221    -142.823
  O       47.048     -82.391    -142.452
  C       45.579     -82.233    -144.354
  O       45.582     -80.885    -144.831
  C       46.869     -82.924    -144.758
  O       47.299     -82.610    -146.075
  C       47.823     -82.423    -143.669
  N       48.996     -83.279    -143.512
  C       49.944     -82.899    -142.568
  O       49.830     -81.940    -141.806
  N       51.073     -83.677    -142.517
  C       51.348     -84.751    -143.311
  O       52.388     -85.394    -143.233
  C       50.312     -85.098    -144.295
  C       49.204     -84.357    -144.350
  O       44.818     -86.962    -143.487
  O       43.316     -86.019    -141.622
  H       44.328     -87.787    -143.310
  H       48.159     -83.054    -146.226
  H       51.769     -83.416    -141.836
  H       50.500     -85.939    -144.949
  H       48.427     -84.577    -145.075
  H       48.139     -81.395    -143.882
  H       46.747     -84.012    -144.694
  H       44.701     -82.757    -144.733
  H       45.326     -81.256    -142.417
  H       45.062     -83.370    -141.099
  H       43.765     -83.151    -142.303
  P       44.256     -80.360    -145.570
  C       45.246     -79.987    -147.960
  O       44.763     -79.409    -146.760
  O       43.664     -79.354    -144.480
  O       43.341     -81.466    -145.978
  H       44.348     -78.858    -143.998
  H       45.539     -79.212    -148.637
  H       44.474     -80.578    -148.407
  H       46.090     -80.608    -147.742

 6  7  8  9  10  11  12  13  14  15  16  27  31  32  33  34  35 0
 6-311+G(2d,p)
 ****
 36  37 0
 6-311+G(2d,p)
 ****
 1  2  3  4  5  17  18  19  20  21  22  23  24  25 0
 3-21G
 ****
 26  28  29  30  38  39  40  41  42  43  44  45 0
 3-21G
 ****


