%nproc=1
%NoSave
%Mem=1900MB
#P OB98/GEN NMR

erre ene a

0 1
  C     -326.232    -410.449     217.975
  O     -327.638    -410.484     218.169
  P     -328.338    -409.163     218.775
  C     -329.272    -409.601     221.153
  O     -328.135    -409.256     220.361
  C     -329.333    -411.102     221.369
  O     -328.033    -411.598     221.774
  C     -330.283    -411.545     222.488
  O     -331.639    -411.591     222.028
  C     -329.763    -412.931     222.781
  O     -330.292    -413.875     221.821
  C     -328.247    -412.769     222.593
  N     -324.728    -414.761     225.662
  C     -325.208    -415.210     224.443
  N     -324.650    -416.352     223.975
  N     -326.148    -414.614     223.765
  C     -326.588    -413.468     224.346
  C     -326.201    -412.911     225.550
  C     -325.192    -413.617     226.318
  O     -324.778    -413.295     227.430
  N     -326.861    -411.740     225.802
  C     -327.621    -411.563     224.734
  N     -327.515    -412.599     223.840
  O     -329.898    -409.454     218.573
  O     -327.918    -407.875     218.128
  H     -331.257    -413.828     221.882
  H     -330.385    -408.606     218.525
  H     -323.999    -415.248     226.139
  H     -328.260    -410.694     224.567
  H     -327.818    -413.622     222.047
  H     -330.066    -413.297     223.777
  H     -323.832    -416.779     224.383
  H     -330.175    -410.911     223.368
  H     -324.954    -416.674     223.057
  H     -329.603    -411.582     220.418
  H     -330.177    -409.282     220.630
  H     -329.218    -409.073     222.109
  P     -332.766    -411.779     223.159
  C     -333.899    -414.078     222.770
  O     -332.859    -413.362     223.403
  O     -334.113    -411.419     222.377
  O     -332.567    -410.937     224.373
  H     -334.800    -411.106     223.002
  H     -334.119    -413.693     221.779
  H     -334.793    -414.045     223.388
  H     -333.589    -415.130     222.677
  H     -325.904    -411.384     217.571
  H     -325.747    -410.276     218.913
  H     -325.985    -409.660     217.295

 3  4  5  6  7  8  9  10  11  12  23  26  30  31  33  0
 6-311+G(2d,p)
 ****
 35  36  37  38 0
 6-311+G(2d,p)
 ****
 1  2  13  14  15  16  17  18  19  20  21  22  24  25  27  28  29 0
 3-21G
 ****
 32  34  39  40  41  42  43  44  45  46  47  48  49 0
 3-21G
 ****


