%nproc=1
%NoSave
%Mem=1900MB
#P OB98/GEN NMR

erre ene a

0 1
  C      117.856    -517.891     508.191
  O      116.851    -518.578     507.476
  H      117.734    -516.816     508.027
  H      118.844    -518.195     507.837
  H      117.770    -518.095     509.262
  P      116.739    -520.158     507.713
  C      116.563    -520.720     505.153
  O      117.270    -520.886     506.382
  C      117.241    -521.531     504.052
  O      118.533    -520.990     503.718
  C      117.535    -522.973     504.443
  O      116.372    -523.760     504.523
  C      118.477    -523.371     503.313
  O      117.749    -523.682     502.114
  C      119.308    -522.069     503.136
  N      120.634    -522.171     503.725
  C      121.609    -522.788     502.921
  O      121.323    -523.196     501.796
  N      122.872    -522.939     503.435
  C      123.151    -522.512     504.626
  N      124.417    -522.707     505.077
  C      122.168    -521.838     505.484
  C      120.928    -521.706     504.981
  O      115.160    -520.415     507.657
  O      117.403    -520.665     508.958
  H      117.346    -522.836     501.814
  H      114.740    -520.072     506.848
  H      122.439    -521.476     506.474
  H      120.147    -521.219     505.553
  H      119.421    -521.836     502.067
  H      119.061    -524.253     503.567
  H      118.103    -522.995     505.384
  H      116.602    -521.481     503.154
  H      125.066    -523.193     504.464
  H      116.508    -519.660     504.873
  H      124.739    -522.436     506.001
  H      115.533    -521.071     505.312
  P      116.430    -525.231     505.168
  C      115.274    -526.138     503.057
  O      116.388    -526.266     503.937
  O      115.425    -525.494     506.242
  O      117.956    -525.356     505.655
  H      118.619    -525.266     504.948
  H      115.347    -526.870     502.280
  H      115.271    -525.159     502.625
  H      114.367    -526.288     503.605

 6  7  8  9  10  11  12  13  14  15  16  26  30  31  32  33  35 0
 6-311+G(2d,p)
 ****
 37  38 0
 6-311+G(2d,p)
 ****
 1  2  3  4  5  17  18  19  20  21  22  23  24  25 0
 3-21G
 ****
 27  28  29  34  36  39  40  41  42  43  44  45  46 0
 3-21G
 ****


