%nproc=1
%NoSave
%Mem=1900MB
#P OB98/GEN NMR

erre ene a

0 1
  C     -103.141     -15.415     -56.382
  O     -102.215     -15.466     -55.310
  P     -100.926     -16.411     -55.473
  C     -101.776     -18.333     -53.934
  O     -101.427     -17.918     -55.245
  C     -102.149     -19.818     -53.925
  O     -103.470     -19.965     -54.505
  C     -101.202     -20.725     -54.717
  O     -101.182     -21.993     -54.051
  C     -101.902     -20.864     -56.056
  O     -101.482     -22.016     -56.780
  C     -103.360     -20.887     -55.612
  N     -104.975     -21.972     -60.281
  C     -103.955     -22.545     -59.541
  N     -103.320     -23.592     -60.108
  N     -103.595     -22.129     -58.355
  C     -104.333     -21.084     -57.912
  C     -105.337     -20.408     -58.563
  C     -105.751     -20.900     -59.857
  O     -106.704     -20.480     -60.509
  N     -105.786     -19.343     -57.828
  C     -105.111     -19.425     -56.700
  N     -104.252     -20.491     -56.684
  O     -100.080     -16.089     -54.156
  O     -100.135     -16.215     -56.728
  H     -100.506     -21.984     -56.852
  H      -99.414     -15.395     -54.326
  H     -105.220     -22.347     -61.181
  H     -105.205     -18.752     -55.864
  H     -103.678     -21.879     -55.265
  H     -101.693     -19.983     -56.676
  H     -103.566     -23.983     -61.005
  H     -100.188     -20.326     -54.809
  H     -102.592     -24.051     -59.574
  H     -102.213     -20.149     -52.881
  H     -102.641     -17.753     -53.597
  H     -100.941     -18.138     -53.253
  P      -99.823     -22.841     -54.094
  C     -100.918     -24.363     -55.880
  O      -99.781     -23.619     -55.490
  O     -100.099     -24.009     -53.031
  O      -98.594     -22.074     -53.731
  H      -99.262     -24.264     -52.600
  H     -100.903     -24.486     -56.966
  H     -101.847     -23.859     -55.596
  H     -100.884     -25.351     -55.413
  H     -103.941     -14.750     -56.131
  H     -103.534     -16.394     -56.561
  H     -102.647     -15.063     -57.263

 3  4  5  6  7  8  9  10  11  12  23  26  30  31 0
 6-311+G(2d,p)
 ****
 33  35  36  37  38 0
 6-311+G(2d,p)
 ****
 1  2  13  14  15  16  17  18  19  20  21  22  24  25 0
 3-21G
 ****
 27  28  29  32  34  39  40  41  42  43  44  45  46  47  48  49 0
 3-21G
 ****


