%nproc=1
%NoSave
%Mem=1900MB
#P OB98/GEN NMR

erre ene a

0 1
  C        3.350     226.318      -5.833
  O        4.718     226.381      -6.189
  H        2.858     227.233      -6.168
  H        3.248     226.238      -4.747
  H        2.873     225.461      -6.315
  P        5.621     225.113      -5.800
  C        6.149     223.918      -3.553
  O        5.741     225.116      -4.201
  C        7.007     224.257      -2.338
  O        8.315     224.699      -2.771
  C        6.454     225.396      -1.493
  O        5.398     224.979      -0.648
  C        7.700     225.832      -0.737
  O        7.928     225.010       0.415
  C        8.810     225.618      -1.771
  N       11.183     230.070      -0.989
  C       11.006     228.991      -0.196
  N       10.370     227.835      -0.484
  C        9.917     227.848      -1.750
  C       10.026     228.872      -2.675
  C       10.699     230.031      -2.252
  N       10.859     231.139      -3.050
  N        9.399     228.530      -3.856
  C        8.927     227.316      -3.652
  N        9.219     226.862      -2.396
  O        7.081     225.546      -6.293
  O        5.191     223.820      -6.406
  H        8.645     225.439       0.919
  H        7.272     225.127      -7.154
  H       11.417     229.070       0.805
  H        8.367     226.734      -4.373
  H        9.708     225.167      -1.331
  H        7.608     226.863      -0.397
  H        6.128     226.222      -2.139
  H        7.135     223.349      -1.734
  H        6.735     223.309      -4.250
  H        5.258     223.356      -3.252
  H       11.291     231.960      -2.659
  H       10.402     231.163      -3.952
  P        4.150     225.971      -0.470
  C        3.934     228.361       0.552
  O        4.584     227.097       0.583
  O        3.075     225.095       0.328
  O        3.593     226.502      -1.748
  H        2.174     225.321       0.028
  H        4.341     228.990       1.316
  H        2.886     228.227       0.721
  H        4.086     228.817      -0.404

 6  7  8  9  10  11  12  13  14  15  25  28  32  33  34  35 0
 6-311+G(2d,p)
 ****
 36  37  40 0
 6-311+G(2d,p)
 ****
 1  2  3  4  5  16  17  18  19  20  21  22  23  24 0
 3-21G
 ****
 26  27  29  30  31  38  39 41  42  43  44  45  46  47  48 0
 3-21G
 ****


