%nproc=1
%NoSave
%Mem=1900MB
#P OB98/GEN NMR

erre ene a

0 1
  C     -138.372    -123.683     250.860
  O     -137.601    -123.623     249.659
  P     -138.212    -122.800     248.427
  C     -139.490    -124.700     247.176
  O     -139.573    -123.515     247.964
  C     -140.882    -125.097     246.673
  O     -141.585    -123.960     246.146
  C     -140.838    -126.105     245.534
  O     -140.587    -127.411     246.030
  C     -142.225    -125.941     244.917
  O     -143.185    -126.821     245.522
  C     -142.570    -124.459     245.216
  N     -142.633    -123.639     244.022
  C     -143.915    -123.259     243.610
  O     -144.904    -123.630     244.235
  N     -144.035    -122.481     242.486
  C     -142.979    -122.146     241.816
  N     -143.162    -121.380     240.705
  C     -141.608    -122.557     242.202
  C     -141.509    -123.295     243.301
  O     -137.201    -123.124     247.227
  O     -138.328    -121.328     248.675
  H     -143.958    -126.821     244.919
  H     -137.130    -122.355     246.623
  H     -140.758    -122.253     241.602
  H     -140.546    -123.640     243.659
  H     -143.545    -124.396     245.730
  H     -142.217    -126.171     243.847
  H     -140.073    -125.817     244.805
  H     -141.453    -125.505     247.516
  H     -144.115    -121.118     240.470
  H     -139.065    -125.514     247.769
  H     -142.409    -121.064     240.103
  H     -138.802    -124.523     246.339
  P     -139.138    -128.036     245.776
  C     -140.293    -129.197     243.797
  O     -139.145    -128.492     244.236
  O     -139.236    -129.437     246.541
  O     -137.962    -127.232     246.218
  H     -138.365    -129.881     246.540
  H     -140.267    -129.265     242.709
  H     -141.205    -128.665     244.096
  H     -140.300    -130.206     244.219
  H     -137.847    -124.260     251.592
  H     -139.317    -124.141     250.655
  H     -138.530    -122.692     251.232

 3  4  5  6  7  8  9  10  11  12  13  21  23  27  28  29  30  32 0
 6-311+G(2d,p)
 ****
 34  35 0
 6-311+G(2d,p)
 ****
 1  2  14  15  16  17  18  19  20  22  24  25  26 0
 3-21G
 ****
 31  33  36  37  38  39  40  41  42  43  44  45  46 0
 3-21G
 ****


