%nproc=1
%NoSave
%Mem=1900MB
#P OB98/GEN NMR

erre ene a

0 1
  C      188.782    -221.833    -467.810
  O      189.671    -220.934    -467.198
  P      191.017    -220.472    -467.963
  C      190.113    -218.141    -468.581
  O      190.563    -219.405    -469.077
  C      191.153    -217.056    -468.901
  O      191.316    -216.900    -470.332
  C      190.778    -215.675    -468.412
  O      190.713    -215.475    -467.015
  C      191.753    -214.809    -469.185
  O      193.043    -214.781    -468.568
  C      191.813    -215.553    -470.546
  N      191.070    -214.863    -471.587
  C      191.705    -213.758    -472.164
  O      192.821    -213.373    -471.839
  N      190.989    -213.088    -473.120
  C      189.709    -213.375    -473.507
  O      189.110    -212.703    -474.342
  C      189.083    -214.528    -472.859
  C      189.773    -215.211    -471.940
  O      191.865    -221.593    -468.482
  O      191.748    -219.546    -466.886
  H      192.931    -214.446    -467.667
  H      191.238    -218.769    -466.595
  H      191.422    -212.285    -473.532
  H      188.077    -214.792    -473.160
  H      189.340    -216.066    -471.446
  H      192.855    -215.655    -470.873
  H      191.415    -213.763    -469.258
  H      189.766    -215.444    -468.784
  H      192.124    -217.382    -468.501
  H      189.983    -218.203    -467.494
  H      189.140    -217.894    -469.022
  P      189.428    -214.855    -466.272
  C      188.236    -217.151    -465.932
  O      188.192    -215.854    -466.492
  O      189.184    -213.393    -466.441
  O      189.789    -215.139    -464.721
  H      189.392    -214.439    -464.168
  H      187.343    -217.703    -466.230
  H      188.278    -217.091    -464.842
  H      189.119    -217.689    -466.318
  H      187.956    -222.019    -467.156
  H      189.289    -222.753    -468.014
  H      188.424    -221.412    -468.726

 3  4  5  6  7  8  9  10  11  12  13  23  28  29  30  31  32 0
 6-311+G(2d,p)
 ****
 33  34 0
 6-311+G(2d,p)
 ****
 1  2  14  15  16  17  18  19  20  21  22  24  25  26  27 0
 3-21G
 ****
 35  36  37  38  39  40  41  42  43  44  45 0
 3-21G
 ****


