%nproc=1
%NoSave
%Mem=1900MB
#P OB98/GEN NMR

erre ene a

0 1
  C       83.926    -205.762      23.319
  O       83.631    -204.398      23.094
  H       84.790    -206.039      22.710
  H       83.072    -206.376      23.020
  H       84.164    -205.940      24.372
  P       82.617    -203.696      24.122
  C       80.430    -204.418      22.924
  O       81.256    -204.548      24.071
  C       78.962    -204.571      23.308
  O       78.713    -205.897      23.824
  C       78.489    -203.597      24.383
  O       78.136    -202.337      23.827
  C       77.261    -204.326      24.903
  O       76.167    -204.158      23.977
  C       77.732    -205.788      24.894
  N       77.065    -208.535      29.105
  C       76.182    -208.257      28.079
  N       74.942    -208.779      28.197
  N       76.482    -207.529      27.034
  C       77.750    -207.053      27.063
  C       78.715    -207.255      28.024
  C       78.373    -208.073      29.165
  O       79.123    -208.358      30.095
  N       79.883    -206.612      27.709
  C       79.618    -206.005      26.570
  N       78.335    -206.239      26.136
  O       82.241    -202.331      23.371
  O       83.171    -203.433      25.481
  H       75.402    -204.636      24.346
  H       82.743    -201.600      23.777
  H       76.778    -209.092      29.891
  H       80.317    -205.393      26.016
  H       76.918    -206.485      24.665
  H       76.922    -203.946      25.868
  H       74.637    -209.328      28.985
  H       79.224    -203.494      25.190
  H       74.278    -208.590      27.455
  H       78.363    -204.459      22.396
  H       80.700    -205.194      22.200
  H       80.597    -203.433      22.475
  P       78.289    -201.033      24.748
  C       75.835    -201.138      25.579
  O       77.211    -201.166      25.932
  O       77.686    -199.876      23.820
  O       79.681    -200.716      25.178
  H       78.399    -199.269      23.541
  H       75.238    -201.236      26.462
  H       75.621    -201.947      24.913
  H       75.609    -200.210      25.097

 6  7  8  9  10  11  12  13  14  15  26  29  33  34 0
 6-311+G(2d,p)
 ****
 36  38  39  40  41 0
 6-311+G(2d,p)
 ****
 1  2  3  4  5  16  17  18  19  20  21  22  23  24  25 0
 3-21G
 ****
 27  28  30  31  32  35  37  42  43  44  45  46  47 0
 3-21G
 ****
 48  49 0
 3-21G
 ****


