%nproc=1
%NoSave
%Mem=1900MB
#P OB98/GEN NMR

erre ene a

0 1
  C     -575.500      -2.160     855.293
  O     -576.851      -2.077     854.902
  H     -574.861      -1.869     854.449
  H     -575.270      -3.196     855.566
  H     -575.287      -1.500     856.143
  P     -577.961      -2.062     856.061
  C     -579.212       0.024     855.140
  O     -579.270      -1.369     855.436
  C     -580.226       0.367     854.039
  O     -579.660      -0.019     852.744
  C     -581.594      -0.339     854.181
  O     -582.623       0.557     853.756
  C     -581.489      -1.460     853.159
  O     -582.765      -1.917     852.730
  C     -580.670      -0.781     852.062
  N     -581.877      -4.434     848.828
  C     -582.672      -3.486     849.441
  N     -584.001      -3.553     849.226
  N     -582.196      -2.548     850.228
  C     -580.843      -2.584     850.352
  C     -579.960      -3.477     849.798
  C     -580.485      -4.527     848.938
  O     -579.854      -5.393     848.387
  N     -578.663      -3.204     850.222
  C     -578.787      -2.178     851.049
  N     -580.082      -1.762     851.156
  O     -577.392      -0.947     857.070
  O     -578.189      -3.368     856.741
  H     -583.331      -1.150     852.549
  H     -576.876      -1.380     857.778
  H     -582.290      -5.150     848.247
  H     -577.981      -1.709     851.584
  H     -581.267      -0.100     851.457
  H     -580.947      -2.319     853.586
  H     -584.443      -4.225     848.609
  H     -581.803      -0.696     855.188
  H     -584.589      -2.838     849.639
  H     -580.359       1.466     854.011
  H     -578.202       0.275     854.794
  H     -579.430       0.588     856.050
  P     -583.968       0.640     854.622
  C     -583.949       3.229     854.920
  O     -584.633       2.081     854.425
  O     -583.414       0.708     856.130
  O     -584.893      -0.526     854.421
  H     -584.028       0.216     856.728
  H     -584.524       4.106     854.708
  H     -582.993       3.307     854.446
  H     -583.816       3.136     855.978

 6  7  8  9  10  11  12  13  14  15  26  29  33  34 0
 6-311+G(2d,p)
 ****
 36  38  39  40  41 0
 6-311+G(2d,p)
 ****
 1  2  3  4  5  16  17  18  19  20  21  22  23  24  25 0
 3-21G
 ****
 27  28  30  31  32  35  37  42  43  44  45  46  47 0
 3-21G
 ****
 48  49 0
 3-21G
 ****


