%nproc=1
%NoSave
%Mem=1900MB
#P OB98/GEN NMR

erre ene a

0 1
  C     -307.502      29.262      46.233
  O     -307.319      28.486      45.069
  P     -308.446      28.411      43.932
  C     -307.710      30.621      42.826
  O     -308.760      29.925      43.494
  C     -308.287      31.590      41.791
  O     -307.182      32.203      41.055
  C     -309.210      30.893      40.769
  O     -310.499      31.494      40.627
  C     -308.355      30.872      39.509
  O     -309.101      30.718      38.316
  C     -307.549      32.161      39.659
  N     -306.383      32.202      38.779
  C     -306.592      32.618      37.467
  O     -307.676      32.967      37.015
  N     -305.500      32.572      36.646
  C     -304.278      32.053      36.957
  O     -303.377      31.953      36.139
  C     -304.131      31.590      38.348
  C     -305.159      31.701      39.189
  O     -309.653      27.610      44.281
  O     -307.640      27.859      42.661
  H     -309.559      29.856      38.362
  H     -306.898      28.418      42.374
  H     -305.634      32.872      35.688
  H     -303.178      31.162      38.623
  H     -305.082      31.365      40.217
  H     -308.157      33.045      39.458
  H     -307.685      30.008      39.579
  H     -309.430      29.865      41.075
  H     -308.821      32.377      42.329
  H     -307.070      29.894      42.322
  H     -307.091      31.151      43.563
  P     -311.696      30.905      39.745
  C     -312.527      29.216      41.543
  O     -311.998      29.414      40.246
  O     -311.531      31.053      38.269
  O     -312.974      31.727      40.256
  H     -313.623      31.801      39.535
  H     -312.204      28.238      41.906
  H     -313.615      29.235      41.494
  H     -312.175      29.984      42.245
  H     -306.638      29.176      46.859
  H     -308.363      28.912      46.763
  H     -307.644      30.287      45.960

 3  4  5  6  7  8  9  10  11  12  13  23  28  29  30  31  32 0
 6-311+G(2d,p)
 ****
 33  34 0
 6-311+G(2d,p)
 ****
 1  2  14  15  16  17  18  19  20  21  22  24  25  26  27 0
 3-21G
 ****
 35  36  37  38  39  40  41  42  43  44  45 0
 3-21G
 ****


