%nproc=1
%NoSave
%Mem=1900MB
#P OB98/GEN NMR

erre ene a

0 1
  C      114.339      75.584    -130.914
  O      114.845      74.492    -131.652
  H      115.083      76.386    -130.918
  H      114.146      75.290    -129.879
  H      113.419      75.953    -131.374
  P      113.950      73.162    -131.686
  C      114.975      71.312    -130.172
  O      114.123      72.447    -130.260
  C      116.429      71.753    -130.323
  O      116.715      72.824    -129.393
  C      117.445      70.663    -130.011
  O      117.611      69.747    -131.079
  C      118.691      71.494    -129.760
  O      119.369      71.818    -130.983
  C      118.123      72.757    -129.088
  N      118.376      72.764    -127.648
  C      119.619      73.256    -127.256
  O      120.464      73.669    -128.048
  N      119.874      73.226    -125.912
  C      119.051      72.715    -124.953
  O      119.366      72.667    -123.769
  C      117.760      72.191    -125.425
  C      117.486      72.236    -126.734
  O      114.750      72.208    -132.690
  O      112.534      73.367    -132.115
  H      114.277      72.155    -133.541
  H      119.756      70.981    -131.306
  H      120.768      73.580    -125.607
  H      117.082      71.777    -124.690
  H      116.546      71.847    -127.111
  H      118.579      73.658    -129.516
  H      119.398      70.958    -129.132
  H      117.170      70.145    -129.084
  H      116.576      72.135    -131.342
  H      114.734      70.607    -130.976
  H      114.814      70.818    -129.211
  P      117.735      68.187    -130.713
  C      120.201      67.346    -131.081
  O      119.250      67.971    -130.234
  O      117.671      67.539    -132.173
  O      116.680      67.723    -129.767
  H      118.000      68.152    -132.856
  H      121.146      67.297    -130.581
  H      120.303      67.913    -131.982
  H      119.871      66.356    -131.318

 6  7  8  9  10  11  12  13  14  15  16  27  31  32  33  34  35 0
 6-311+G(2d,p)
 ****
 36  37 0
 6-311+G(2d,p)
 ****
 1  2  3  4  5  17  18  19  20  21  22  23  24  25 0
 3-21G
 ****
 26  28  29  30  38  39  40  41  42  43  44  45 0
 3-21G
 ****


