%nproc=1
%NoSave
%Mem=1900MB
#P OB98/GEN NMR

erre ene a

0 1
  C      181.390    -685.236     221.361
  O      181.541    -684.287     222.395
  H      180.670    -684.877     220.620
  H      182.356    -685.381     220.871
  H      181.056    -686.193     221.772
  P      180.203    -683.855     223.167
  C      181.830    -683.860     225.186
  O      180.662    -683.299     224.603
  C      181.854    -683.579     226.687
  O      180.622    -684.030     227.296
  C      182.963    -684.285     227.449
  O      184.216    -683.624     227.303
  C      182.434    -684.179     228.876
  O      182.723    -682.872     229.402
  C      180.925    -684.345     228.684
  N      178.362    -687.281     232.024
  C      178.676    -685.964     232.040
  N      179.365    -685.253     231.123
  C      179.738    -686.039     230.094
  C      179.490    -687.393     229.949
  C      178.775    -688.023     230.979
  N      178.470    -689.370     230.963
  N      180.015    -687.857     228.760
  C      180.574    -686.804     228.193
  N      180.434    -685.676     228.973
  O      179.505    -685.254     223.522
  O      179.282    -682.969     222.401
  H      183.697    -682.767     229.366
  H      178.540    -685.156     223.463
  H      178.315    -685.399     232.897
  H      181.071    -686.806     227.240
  H      180.362    -683.630     229.300
  H      182.885    -684.915     229.552
  H      183.032    -685.344     227.163
  H      181.916    -682.493     226.826
  H      182.718    -683.409     224.726
  H      177.797    -689.720     231.625
  H      178.790    -689.919     230.169
  H      181.836    -684.932     224.997
  P      185.523    -684.416     227.775
  C      186.998    -683.043     226.140
  O      186.758    -683.427     227.491
  O      185.694    -685.549     226.647
  O      185.457    -685.004     229.145
  H      186.185    -686.306     227.016
  H      187.844    -682.389     226.100
  H      186.137    -682.537     225.755
  H      187.193    -683.915     225.551

 6  7  8  9  10  11  12  13  14  15  25  28  32  33  34  35 0
 6-311+G(2d,p)
 ****
 36  39  40 0
 6-311+G(2d,p)
 ****
 1  2  3  4  5  16  17  18  19  20  21  22  23  24 0
 3-21G
 ****
 26  27  29  30  31  37  38  41  42  43  44  45  46  47  48 0
 3-21G
 ****


