%nproc=1
%NoSave
%Mem=1900MB
#P OB98/GEN NMR

erre ene a

0 1
  C     -349.329     -96.480     -86.530
  O     -349.800     -97.786     -86.189
  P     -350.899     -98.434     -87.153
  C     -349.530    -100.377     -88.208
  O     -350.571     -99.993     -87.314
  C     -349.052    -101.792     -87.889
  O     -348.237    -101.828     -86.695
  C     -350.190    -102.768     -87.627
  O     -350.830    -103.138     -88.832
  C     -349.446    -103.898     -86.926
  O     -348.764    -104.720     -87.893
  C     -348.409    -103.126     -86.088
  N     -346.787    -103.081     -81.233
  C     -346.135    -103.290     -82.403
  N     -346.639    -103.283     -83.648
  C     -347.961    -103.031     -83.632
  C     -348.755    -102.800     -82.521
  C     -348.116    -102.835     -81.274
  N     -348.784    -102.646     -80.082
  N     -350.065    -102.579     -82.900
  C     -350.063    -102.698     -84.212
  N     -348.815    -102.959     -84.702
  O     -350.543     -97.819     -88.587
  O     -352.302     -98.122     -86.755
  H     -348.312    -104.116     -88.517
  H     -351.221     -97.167     -88.844
  H     -345.075    -103.475     -82.318
  H     -350.935    -102.609     -84.845
  H     -347.434    -103.619     -86.080
  H     -350.096    -104.553     -86.344
  H     -350.923    -102.324     -86.939
  H     -348.449    -102.143     -88.733
  H     -348.689     -99.676     -88.132
  H     -348.261    -102.765     -79.225
  H     -349.786    -102.548     -80.091
  H     -349.901    -100.301     -89.234
  P     -352.214    -103.942     -88.731
  C     -353.566    -102.100     -89.895
  O     -353.062    -103.418     -89.987
  O     -352.925    -103.216     -87.502
  O     -352.073    -105.424     -88.612
  H     -352.853    -102.242     -87.567
  H     -354.088    -101.857     -90.829
  H     -352.752    -101.392     -89.747
  H     -354.277    -102.028     -89.062
  H     -348.603     -96.164     -85.811
  H     -350.150     -95.794     -86.533
  H     -348.882     -96.505     -87.502

 3  4  5  6  7  8  9  10  11  12  22  25  29  30  31  32 0
 6-311+G(2d,p)
 ****
 33  36  37 0
 6-311+G(2d,p)
 ****
 1  2  13  14  15  16  17  18  19  20  21  23  24  26 0
 3-21G
 ****
 27  28  34  35  38  39  40  41  42  43  44  45  46  47  48 0
 3-21G
 ****


