%nproc=1
%NoSave
%Mem=1900MB
#P OB98/GEN NMR

erre ene a

0 1
  C       97.833     329.858     580.153
  O       97.660     330.214     578.794
  P       96.190     330.238     578.113
  C       95.924     327.812     577.236
  O       95.641     328.741     578.287
  C       94.634     327.136     576.778
  O       93.845     326.748     577.925
  C       93.719     328.032     575.939
  O       94.211     328.166     574.607
  C       92.385     327.299     576.085
  O       92.340     326.175     575.197
  C       92.459     326.811     577.540
  N       91.694     327.656     578.472
  C       90.314     327.481     578.487
  O       89.763     326.639     577.750
  N       89.552     328.230     579.353
  C       90.130     329.111     580.120
  N       89.344     329.778     581.005
  C       91.587     329.373     580.094
  C       92.297     328.609     579.262
  O       96.158     330.765     576.725
  O       95.289     331.062     579.147
  H       92.538     326.522     574.302
  H       95.298     332.036     578.992
  H       92.020     330.126     580.742
  H       93.375     328.729     579.188
  H       92.078     325.781     577.622
  H       91.514     327.931     575.874
  H       93.640     329.032     576.394
  H       94.904     326.237     576.217
  H       88.396     329.452     581.106
  H       96.604     327.049     577.628
  H       89.738     330.245     581.821
  H       96.409     328.339     576.415
  P       93.956     329.567     573.869
  C       91.976     328.568     572.517
  O       92.405     329.565     573.432
  O       94.751     329.392     572.494
  O       94.399     330.765     574.635
  H       95.620     329.862     572.521
  H       90.869     328.551     572.522
  H       92.343     327.580     572.820
  H       92.320     328.815     571.496
  H       98.872     329.905     580.404
  H       97.472     328.863     580.310
  H       97.285     330.537     580.772

 3  4  5  6  7  8  9  10  11  12  13  23  27  28  29  30  32 0
 6-311+G(2d,p)
 ****
 34  35 0
 6-311+G(2d,p)
 ****
 1  2  14  15  16  17  18  19  20  21  22  24  25  26 0
 3-21G
 ****
 31  33  36  37  38  39  40  41  42  43  44  45  46 0
 3-21G
 ****


