%nproc=1
%NoSave
%Mem=1900MB
#P OB98/GEN NMR

erre ene a

0 1
  C       73.440    -139.999     -59.192
  O       72.533    -140.292     -58.123
  P       72.797    -139.602     -56.698
  C       74.176    -140.201     -54.571
  O       73.972    -140.412     -55.960
  C       75.426    -140.955     -54.094
  O       75.264    -142.388     -54.223
  C       76.686    -140.603     -54.881
  O       77.293    -139.412     -54.396
  C       77.572    -141.799     -54.557
  O       78.171    -141.631     -53.258
  C       76.561    -142.958     -54.540
  N       79.003    -146.111     -57.664
  C       79.379    -145.605     -56.432
  N       80.582    -146.010     -55.959
  N       78.647    -144.784     -55.725
  C       77.465    -144.480     -56.317
  C       76.978    -144.914     -57.532
  C       77.806    -145.814     -58.307
  O       77.532    -146.282     -59.413
  N       75.738    -144.384     -57.794
  C       75.464    -143.649     -56.732
  N       76.488    -143.660     -55.812
  O       71.499    -140.017     -55.853
  O       72.968    -138.118     -56.758
  H       77.435    -141.598     -52.614
  H       71.319    -139.347     -55.170
  H       79.609    -146.736     -58.166
  H       74.544    -143.096     -56.584
  H       76.795    -143.706     -53.771
  H       78.395    -141.913     -55.273
  H       81.176    -146.676     -56.423
  H       76.482    -140.560     -55.961
  H       80.859    -145.675     -55.040
  H       75.585    -140.717     -53.035
  H       73.304    -140.536     -54.001
  H       74.261    -139.125     -54.382
  P       77.137    -138.084     -55.289
  C       78.303    -137.193     -57.435
  O       78.098    -138.286     -56.552
  O       77.888    -136.975     -54.404
  O       75.728    -137.690     -55.589
  H       77.473    -136.101     -54.544
  H       79.099    -137.456     -58.136
  H       78.596    -136.296     -56.884
  H       77.386    -136.994     -58.003
  H       73.137    -140.528     -60.072
  H       74.428    -140.303     -58.915
  H       73.433    -138.947     -59.388

 3  4  5  6  7  8  9  10  11  12  23  26  30  31 0
 6-311+G(2d,p)
 ****
 33  35  36  37  38 0
 6-311+G(2d,p)
 ****
 1  2  13  14  15  16  17  18  19  20  21  22  24  25 0
 3-21G
 ****
 27  28  29  32  34  39  40  41  42  43  44  45  46  47  48  49 0
 3-21G
 ****


