%nproc=1
%NoSave
%Mem=1900MB
#P OB98/GEN NMR

erre ene a

0 1
  C      431.858     536.453    -358.744
  O      430.607     536.065    -359.283
  P      429.395     535.836    -358.257
  C      428.224     538.139    -358.565
  O      429.001     537.292    -357.715
  C      427.000     538.664    -357.816
  O      426.042     537.599    -357.639
  C      427.299     539.192    -356.428
  O      427.869     540.475    -356.491
  C      425.912     539.156    -355.792
  O      425.189     540.368    -356.076
  C      425.249     537.942    -356.486
  N      425.096     536.807    -355.586
  C      423.773     536.444    -355.286
  O      422.830     537.087    -355.758
  N      423.565     535.385    -354.427
  C      424.575     534.758    -353.923
  N      424.304     533.722    -353.082
  C      425.975     535.125    -354.194
  C      426.167     536.147    -355.029
  O      430.115     535.152    -357.002
  O      428.274     535.007    -358.793
  H      424.289     540.232    -355.691
  H      429.487     534.604    -356.498
  H      426.792     534.569    -353.742
  H      427.163     536.487    -355.283
  H      424.252     538.217    -356.858
  H      425.964     539.073    -354.700
  H      427.961     538.495    -355.889
  H      426.526     539.443    -358.434
  H      423.337     533.502    -352.904
  H      427.888     537.567    -359.442
  H      425.023     533.160    -352.648
  H      428.855     538.968    -358.908
  P      428.985     540.859    -355.405
  C      431.051     539.990    -356.633
  O      430.141     539.763    -355.587
  O      428.283     540.380    -354.038
  O      429.422     542.283    -355.339
  H      428.826     540.660    -353.276
  H      431.866     539.267    -356.551
  H      431.470     540.998    -356.563
  H      430.563     539.855    -357.603
  H      432.567     536.569    -359.537
  H      432.202     535.702    -358.064
  H      431.750     537.382    -358.224

 3  4  5  6  7  8  9  10  11  12  13  21  23  27  28  29  30  32 0
 6-311+G(2d,p)
 ****
 34  35 0
 6-311+G(2d,p)
 ****
 1  2  14  15  16  17  18  19  20  22  24  25  26 0
 3-21G
 ****
 31  33  36  37  38  39  40  41  42  43  44  45  46 0
 3-21G
 ****


