%nproc=1
%NoSave
%Mem=1900MB
#P OB98/GEN NMR

erre ene a

0 1
  C     -130.914    -259.932     142.354
  O     -131.780    -260.463     141.370
  H     -131.515    -259.434     143.120
  H     -130.239    -259.198     141.904
  H     -130.336    -260.733     142.821
  P     -131.077    -261.183     140.119
  C     -131.646    -259.523     138.212
  O     -130.655    -260.014     139.103
  C     -131.170    -259.645     136.767
  O     -130.030    -258.792     136.530
  C     -130.758    -261.056     136.358
  O     -131.885    -261.826     135.981
  C     -129.826    -260.763     135.190
  O     -130.576    -260.495     133.986
  C     -129.096    -259.500     135.669
  N     -124.063    -259.261     135.353
  C     -125.029    -259.005     134.401
  N     -124.591    -258.658     133.169
  N     -126.313    -259.090     134.627
  C     -126.606    -259.502     135.882
  C     -125.743    -259.790     136.914
  C     -124.325    -259.638     136.665
  O     -123.426    -259.769     137.489
  N     -126.426    -260.158     138.047
  C     -127.694    -260.126     137.687
  N     -127.856    -259.739     136.383
  O     -132.298    -261.900     139.368
  O     -130.006    -262.163     140.462
  H     -131.174    -261.242     133.811
  H     -131.993    -262.762     139.025
  H     -123.091    -259.149     135.132
  H     -128.530    -260.363     138.334
  H     -128.853    -258.830     134.836
  H     -129.181    -261.615     134.967
  H     -123.649    -258.858     132.862
  H     -130.191    -261.547     137.158
  H     -125.298    -258.544     132.456
  H     -131.982    -259.281     136.121
  H     -131.839    -258.470     138.443
  H     -132.568    -260.095     138.347
  P     -131.874    -263.395     136.303
  C     -131.632    -264.220     133.853
  O     -131.044    -264.132     135.143
  O     -133.388    -263.830     136.017
  O     -131.473    -263.742     137.697
  H     -133.855    -263.977     136.859
  H     -130.966    -264.734     133.192
  H     -131.818    -263.235     133.478
  H     -132.555    -264.757     133.918

 6  7  8  9  10  11  12  13  14  15  26  29  33  34 0
 6-311+G(2d,p)
 ****
 36  38  39  40  41 0
 6-311+G(2d,p)
 ****
 1  2  3  4  5  16  17  18  19  20  21  22  23  24  25 0
 3-21G
 ****
 27  28  30  31  32  35  37  42  43  44  45  46  47 0
 3-21G
 ****
 48  49 0
 3-21G
 ****


