%nproc=1
%NoSave
%Mem=1900MB
#P OB98/GEN NMR

erre ene a

0 1
  C       60.614    -288.278     -26.281
  O       60.606    -289.678     -26.544
  P       60.899    -290.349     -27.962
  C       59.753    -290.325     -30.328
  O       59.682    -290.014     -28.943
  C       58.354    -290.352     -30.961
  O       57.616    -291.487     -30.411
  C       57.542    -289.091     -30.650
  O       56.805    -288.596     -31.763
  C       56.747    -289.496     -29.418
  O       55.607    -288.682     -29.186
  C       56.473    -290.974     -29.688
  N       53.310    -292.038     -25.827
  C       53.218    -291.054     -26.788
  N       52.153    -290.226     -26.706
  N       54.099    -290.877     -27.734
  C       55.153    -291.718     -27.656
  C       55.366    -292.727     -26.743
  C       54.358    -292.944     -25.727
  O       54.382    -293.817     -24.864
  N       56.549    -293.381     -26.984
  C       57.059    -292.755     -28.029
  N       56.241    -291.742     -28.478
  O       61.369    -291.762     -27.931
  O       62.098    -289.453     -28.564
  H       55.099    -289.083     -28.456
  H       62.638    -290.055     -29.115
  H       52.590    -292.143     -25.133
  H       57.997    -293.002     -28.506
  H       55.588    -291.120     -30.311
  H       57.405    -289.380     -28.547
  H       51.504    -290.227     -25.933
  H       58.204    -288.257     -30.390
  H       52.206    -289.378     -27.271
  H       58.457    -290.507     -32.040
  H       60.211    -291.316     -30.393
  H       60.407    -289.622     -30.848
  P       56.961    -287.201     -32.524
  C       56.075    -284.817     -32.213
  O       55.848    -286.193     -31.973
  O       56.474    -287.489     -34.020
  O       58.351    -286.647     -32.529
  H       57.211    -287.331     -34.642
  H       55.407    -284.234     -31.573
  H       55.856    -284.585     -33.259
  H       57.110    -284.547     -31.985
  H       60.385    -288.108     -25.250
  H       59.881    -287.796     -26.893
  H       61.582    -287.879     -26.502

 3  4  5  6  7  8  9  10  11  12  23  26  30  31 0
 6-311+G(2d,p)
 ****
 33  35  36  37  38 0
 6-311+G(2d,p)
 ****
 1  2  13  14  15  16  17  18  19  20  21  22  24  25 0
 3-21G
 ****
 27  28  29  32  34  39  40  41  42  43  44  45  46  47  48  49 0
 3-21G
 ****


