%nproc=1
%NoSave
%Mem=1900MB
#P OB98/GEN NMR

erre ene a

0 1
  C       97.626     148.811       8.323
  O       98.402     149.845       8.906
  P       97.689     150.794       9.987
  C       97.231     153.244       9.233
  O       96.847     151.877       9.152
  C       98.372     153.527       8.260
  O       98.107     152.929       6.974
  C       98.597     155.009       7.974
  O       99.351     155.645       8.992
  C       99.394     154.940       6.683
  O      100.774     154.648       6.973
  C       98.738     153.755       5.959
  N       97.988     156.388       1.707
  C       99.169     156.014       2.315
  N      100.308     156.453       1.741
  N       99.230     155.270       3.391
  C       98.008     154.912       3.861
  C       96.768     155.218       3.343
  C       96.718     156.052       2.161
  O       95.704     156.461       1.605
  N       95.763     154.667       4.089
  C       96.386     154.023       5.057
  N       97.745     154.180       4.986
  O       98.902     151.654      10.579
  O       96.938     150.072      11.052
  H      101.211     154.478       6.115
  H       98.637     152.067      11.423
  H       97.995     156.968       0.881
  H       95.895     153.451       5.835
  H       99.476     153.132       5.445
  H       99.380     155.881       6.123
  H      100.330     157.080       0.949
  H       97.647     155.526       7.789
  H      101.188     156.246       2.201
  H       99.287     153.070       8.663
  H       97.555     153.468      10.251
  H       96.367     153.874       8.997
  P       99.061     157.206       9.237
  C      101.180     158.621       8.737
  O      100.026     157.984       8.225
  O       99.711     157.472      10.675
  O       97.615     157.578       9.190
  H       99.270     158.222      11.117
  H      101.846     158.863       7.904
  H      101.716     157.970       9.433
  H      100.898     159.551       9.243
  H       98.227     148.264       7.627
  H       96.788     149.238       7.812
  H       97.278     148.151       9.090

 3  4  5  6  7  8  9  10  11  12  23  26  30  31 0
 6-311+G(2d,p)
 ****
 33  35  36  37  38 0
 6-311+G(2d,p)
 ****
 1  2  13  14  15  16  17  18  19  20  21  22  24  25 0
 3-21G
 ****
 27  28  29  32  34  39  40  41  42  43  44  45  46  47  48  49 0
 3-21G
 ****


