%nproc=1
%NoSave
%Mem=1900MB
#P OB98/GEN NMR

erre ene a

0 1
  C     -294.750     437.027      25.425
  O     -294.899     438.141      26.312
  P     -296.158     439.108      26.050
  C     -297.453     438.794      28.290
  O     -296.644     439.643      27.487
  C     -297.439     439.256      29.746
  O     -296.241     438.810      30.421
  C     -297.453     440.769      29.923
  O     -298.761     441.303      29.771
  C     -296.977     440.904      31.365
  O     -298.084     440.707      32.266
  C     -295.972     439.748      31.489
  N     -292.098     441.983      33.879
  C     -293.376     441.723      34.319
  N     -293.658     442.079      35.594
  N     -294.298     441.154      33.585
  C     -293.872     440.822      32.345
  C     -292.632     441.030      31.791
  C     -291.625     441.689      32.600
  O     -290.489     441.978      32.249
  N     -292.568     440.551      30.507
  C     -293.755     440.021      30.299
  N     -294.588     440.174      31.380
  O     -297.311     438.084      25.629
  O     -295.920     440.151      25.013
  H     -298.678     441.478      32.158
  H     -297.966     438.535      25.060
  H     -291.427     442.430      34.479
  H     -294.065     439.519      29.390
  H     -296.090     439.206      32.434
  H     -296.565     441.892      31.585
  H     -292.978     442.453      36.234
  H     -296.731     441.253      29.249
  H     -294.576     441.860      35.951
  H     -298.307     438.811      30.254
  H     -297.083     437.768      28.232
  H     -298.476     438.787      27.892
  P     -298.892     442.906      29.715
  C     -300.146     442.791      27.446
  O     -300.177     443.195      28.798
  O     -297.654     443.337      28.802
  O     -298.871     443.572      31.051
  H     -297.355     444.242      29.044
  H     -299.717     441.785      27.340
  H     -299.556     443.500      26.859
  H     -301.167     442.773      27.058
  H     -293.882     436.465      25.701
  H     -294.640     437.382      24.422
  H     -295.616     436.402      25.489

 3  4  5  6  7  8  9  10  11  12  23  26  30  31  33  0
 6-311+G(2d,p)
 ****
 35  36  37  38 0
 6-311+G(2d,p)
 ****
 1  2  13  14  15  16  17  18  19  20  21  22  24  25  27  28  29 0
 3-21G
 ****
 32  34  39  40  41  42  43  44  45  46  47  48  49 0
 3-21G
 ****


