%nproc=1
%NoSave
%Mem=1900MB
#P OB98/GEN NMR

erre ene a

0 1
  C      434.291     154.166    -131.562
  O      433.746     152.964    -132.073
  P      433.082     153.008    -133.539
  C      430.446     153.044    -133.460
  O      431.668     153.756    -133.352
  C      430.142     152.321    -132.142
  O      430.578     153.124    -131.028
  C      428.656     152.046    -131.898
  O      428.201     150.954    -132.672
  C      428.650     151.814    -130.387
  O      429.079     150.472    -130.091
  C      429.702     152.831    -129.909
  N      429.118     154.059    -129.367
  C      428.789     154.030    -128.014
  O      428.963     153.054    -127.288
  N      428.223     155.176    -127.512
  C      427.907     156.302    -128.233
  O      427.361     157.283    -127.743
  C      428.255     156.256    -129.668
  C      428.833     155.162    -130.153
  O      432.702     151.469    -133.735
  O      433.989     153.581    -134.577
  H      432.549     151.023    -132.877
  H      429.933     150.346    -130.565
  H      427.995     155.198    -126.523
  H      428.007     157.119    -130.269
  H      429.081     155.105    -131.207
  H      430.338     152.385    -129.137
  H      427.652     151.953    -129.952
  H      428.071     152.940    -132.138
  H      430.712     151.379    -132.135
  H      430.531     152.321    -134.269
  H      429.646     153.755    -133.698
  P      426.650     151.003    -133.135
  C      424.827     149.365    -132.208
  O      425.802     150.347    -131.940
  O      426.628     149.894    -134.281
  O      426.195     152.369    -133.575
  H      427.142     149.097    -134.062
  H      424.625     148.805    -131.293
  H      425.174     148.672    -132.988
  H      423.901     149.850    -132.535
  H      434.694     153.989    -130.587
  H      433.523     154.908    -131.500
  H      435.068     154.510    -132.212

 3  4  5  6  7  8  9  10  11  12  13  24  28  29  30  31  32 0
 6-311+G(2d,p)
 ****
 33  34 0
 6-311+G(2d,p)
 ****
 1  2  14  15  16  17  18  19  20  21  22  23  25  26  27 0
 3-21G
 ****
 35  36  37  38  39  40  41  42  43  44  45 0
 3-21G
 ****


