%nproc=1
%NoSave
%Mem=1900MB
#P OB98/GEN NMR

erre ene a

0 1
  C        6.454     225.396      -1.493
  O        5.398     224.979      -0.648
  P        4.150     225.971      -0.470
  C        3.934     228.361       0.552
  O        4.584     227.097       0.583
  C        4.002     229.012       1.934
  O        3.191     228.278       2.877
  C        5.404     229.032       2.530
  O        6.188     230.073       1.973
  C        5.106     229.222       4.010
  O        4.894     230.609       4.320
  C        3.800     228.419       4.178
  N        4.013     227.127       4.821
  C        3.563     227.019       6.134
  O        3.035     227.952       6.739
  N        3.776     225.812       6.742
  C        4.431     224.743       6.200
  O        4.640     223.706       6.817
  C        4.911     224.927       4.820
  C        4.690     226.091       4.207
  O        3.075     225.095       0.328
  O        3.593     226.502      -1.748
  H        4.722     230.655       5.282
  H        2.174     225.321       0.028
  H        3.434     225.704       7.684
  H        5.435     224.100       4.358
  H        5.048     226.251       3.196
  H        3.083     228.989       4.785
  H        5.928     228.875       4.645
  H        5.887     228.057       2.383
  H        3.601     230.030       1.859
  H        2.889     228.223       0.259
  H        4.420     228.995      -0.196
  P        7.774     229.826       1.895
  C        9.457     228.805       3.613
  O        8.203     229.411       3.381
  O        8.301     231.327       1.710
  O        8.166     228.888       0.803
  H        7.736     231.973       2.168
  H       10.225     229.207       2.947
  H        9.372     227.727       3.462
  H        9.754     228.996       4.648
  H        7.212     224.641      -1.516
  H        6.871     226.308      -1.119
  H        6.078     225.555      -2.482

 3  4  5  6  7  8  9  10  11  12  13  23  28  29  30  31  32 0
 6-311+G(2d,p)
 ****
 33  34 0
 6-311+G(2d,p)
 ****
 1  2  14  15  16  17  18  19  20  21  22  24  25  26 0
 3-21G
 ****
 27  35  36  37  38  39  40  41  42  43  44  45 0
 3-21G
 ****


