%nproc=1
%NoSave
%Mem=1900MB
#P OB98/GEN NMR

erre ene a

0 1
  C       12.840     200.002      75.335
  O       12.244     200.342      74.096
  P       11.485     201.750      73.971
  C        9.138     200.638      73.577
  O        9.954     201.480      74.368
  C        7.658     200.973      73.790
  O        6.848     200.022      73.049
  C        7.201     200.923      75.255
  O        6.216     201.951      75.428
  C        6.563     199.550      75.362
  O        5.649     199.452      76.443
  C        5.917     199.426      73.976
  N        5.622     198.045      73.591
  C        4.286     197.672      73.478
  O        3.342     198.429      73.704
  N        4.062     196.368      73.120
  C        5.013     195.409      72.932
  O        4.752     194.250      72.630
  C        6.402     195.848      73.111
  C        6.640     197.124      73.419
  O       11.449     201.943      72.384
  O       12.142     202.855      74.726
  H       11.332     201.106      71.903
  H        4.870     199.998      76.230
  H        3.098     196.086      72.996
  H        7.188     195.111      72.987
  H        7.657     197.474      73.557
  H        4.998     200.021      73.937
  H        7.345     198.796      75.507
  H        8.026     201.074      75.958
  H        7.466     201.967      73.363
  H        9.311     199.596      73.858
  H        9.416     200.752      72.521
  P        5.767     202.324      76.929
  C        3.617     200.831      76.843
  O        4.846     201.128      77.463
  O        4.698     203.486      76.622
  O        6.873     202.776      77.826
  H        4.060     203.239      75.934
  H        3.318     199.816      77.118
  H        3.696     200.887      75.753
  H        2.852     201.530      77.191
  H       13.302     199.040      75.256
  H       12.089     199.975      76.097
  H       13.579     200.733      75.588

 3  4  5  6  7  8  9  10  11  12  13  24  28  29  30  31  32 0
 6-311+G(2d,p)
 ****
 33  34 0
 6-311+G(2d,p)
 ****
 1  2  14  15  16  17  18  19  20  21  22  23  25  26  27 0
 3-21G
 ****
 35  36  37  38  39  40  41  42  43  44  45 0
 3-21G
 ****


