%nproc=1
%NoSave
%Mem=1900MB
#P OB98/GEN NMR

erre ene a

0 1
  C      354.207      89.383     295.188
  O      354.377      88.371     296.166
  P      353.271      87.226     296.395
  C      352.689      88.107     298.755
  O      352.228      87.848     297.439
  C      351.826      87.361     299.774
  O      352.436      87.503     301.087
  C      350.385      87.872     299.880
  O      349.552      86.736     300.149
  C      350.435      88.796     301.080
  O      349.154      89.002     301.668
  C      351.438      88.057     301.969
  N      352.049      88.928     302.973
  C      351.567      88.858     304.279
  O      350.642      88.095     304.574
  N      352.148      89.646     305.243
  C      353.064      90.502     304.907
  N      353.648      91.214     305.903
  C      353.528      90.689     303.518
  C      352.999      89.862     302.620
  O      353.819      85.893     296.770
  O      352.422      87.227     295.039
  H      349.243      89.686     302.361
  H      352.827      86.664     294.331
  H      354.278      91.431     303.284
  H      353.295      89.911     301.578
  H      350.951      87.209     302.470
  H      350.826      89.775     300.768
  H      350.043      88.357     298.964
  H      351.837      86.292     299.523
  H      353.434      90.936     306.856
  H      352.608      89.180     298.946
  H      354.565      91.640     305.779
  H      353.741      87.816     298.840
  P      348.499      86.275     299.024
  C      346.465      86.771     300.563
  O      347.099      87.004     299.326
  O      348.189      84.762     299.474
  O      348.988      86.295     297.612
  H      347.904      84.252     298.689
  H      345.533      87.352     300.589
  H      347.100      87.097     301.388
  H      346.216      85.712     300.672
  H      355.053      90.038     295.201
  H      353.320      89.942     295.403
  H      354.119      88.933     294.221

 3  4  5  6  7  8  9  10  11  12  13  23  27  28  29  30  32 0
 6-311+G(2d,p)
 ****
 34  35 0
 6-311+G(2d,p)
 ****
 1  2  14  15  16  17  18  19  20  21  22  24  25  26 0
 3-21G
 ****
 31  33  36  37  38  39  40  41  42  43  44  45  46 0
 3-21G
 ****


