%nproc=1
%NoSave
%Mem=1900MB
#P OB98/GEN NMR

erre ene a

0 1
  C       53.700     216.499     104.813
  O       54.749     217.326     105.339
  P       54.739     217.614     106.919
  C       57.324     217.273     107.234
  O       56.208     218.160     107.265
  C       58.576     218.021     106.791
  O       58.397     218.569     105.460
  C       58.942     219.213     107.675
  O       59.502     218.794     108.907
  C       59.896     219.970     106.756
  O       61.202     219.385     106.797
  C       59.251     219.734     105.368
  N       58.523     220.894     104.870
  C       59.285     222.028     104.598
  O       60.509     222.073     104.779
  N       58.604     223.114     104.122
  C       57.259     223.188     103.931
  O       56.695     224.194     103.492
  C       56.484     221.978     104.286
  C       57.144     220.905     104.730
  O       54.719     216.124     107.509
  O       53.604     218.485     107.347
  H       55.231     215.496     106.964
  H       61.553     219.556     107.697
  H       59.138     223.940     103.910
  H       55.410     222.012     104.164
  H       56.595     220.005     105.003
  H       60.031     219.486     104.630
  H       59.994     221.028     107.037
  H       58.044     219.825     107.862
  H       59.417     217.308     106.759
  H       57.129     216.448     106.541
  H       57.452     216.841     108.233
  P       59.229     219.720     110.189
  C       56.628     219.441     110.186
  O       57.856     219.210     110.834
  O       58.841     221.111     109.489
  O       60.390     219.812     111.121
  H       58.222     220.995     108.742
  H       55.879     218.742     110.575
  H       56.716     219.292     109.104
  H       56.287     220.461     110.384
  H       53.827     216.390     103.756
  H       52.753     216.954     105.013
  H       53.738     215.536     105.278

 3  4  5  6  7  8  9  10  11  12  13  24  28  29  30  31  32 0
 6-311+G(2d,p)
 ****
 33  34 0
 6-311+G(2d,p)
 ****
 1  2  14  15  16  17  18  19  20  21  22  23  25  26  27 0
 3-21G
 ****
 35  36  37  38  39  40  41  42  43  44  45 0
 3-21G
 ****


