%nproc=1
%NoSave
%Mem=1900MB
#P OB98/GEN NMR

erre ene a

0 1
  C     -135.166     181.414     259.413
  O     -136.491     180.974     259.724
  P     -137.439     181.919     260.612
  C     -138.369     183.124     258.539
  O     -138.687     182.390     259.715
  C     -139.586     183.325     257.628
  O     -139.986     182.071     257.009
  C     -140.824     183.895     258.336
  O     -141.486     184.759     257.404
  C     -141.652     182.648     258.594
  O     -143.015     182.946     258.869
  C     -141.383     181.867     257.305
  N     -141.709     180.455     257.427
  C     -142.807     179.985     256.706
  O     -143.520     180.777     256.084
  N     -143.092     178.640     256.734
  C     -142.428     177.865     257.532
  N     -142.720     176.534     257.519
  C     -141.376     178.356     258.448
  C     -141.057     179.643     258.324
  O     -136.740     183.019     261.343
  O     -138.113     180.884     261.637
  H     -143.480     182.119     259.115
  H     -138.243     181.334     262.498
  H     -140.907     177.689     259.153
  H     -140.299     180.098     258.943
  H     -141.959     182.288     256.467
  H     -141.245     182.112     259.461
  H     -140.582     184.461     259.244
  H     -139.292     184.004     256.812
  H     -143.459     176.215     256.904
  H     -137.588     182.591     257.981
  H     -142.211     175.858     258.074
  H     -137.931     184.089     258.826
  P     -141.488     186.342     257.679
  C     -139.295     186.968     256.427
  O     -140.704     187.051     256.472
  O     -140.426     186.464     258.880
  O     -142.798     186.940     258.084
  H     -140.620     187.278     259.392
  H     -138.959     187.249     255.423
  H     -138.945     185.953     256.636
  H     -138.857     187.666     257.152
  H     -134.674     180.672     258.819
  H     -134.619     181.566     260.320
  H     -135.214     182.333     258.867

 3  4  5  6  7  8  9  10  11  12  13  23  27  28  29  30  32 0
 6-311+G(2d,p)
 ****
 34  35 0
 6-311+G(2d,p)
 ****
 1  2  14  15  16  17  18  19  20  21  22  24  25  26 0
 3-21G
 ****
 31  33  36  37  38  39  40  41  42  43  44  45  46 0
 3-21G
 ****


