%nproc=1
%NoSave
%Mem=1900MB
#P OB98/GEN NMR

erre ene a

0 1
  C      -66.360      29.586     218.276
  O      -67.438      29.582     217.363
  H      -66.403      30.510     218.863
  H      -65.408      29.561     217.739
  H      -66.427      28.736     218.962
  P      -67.698      28.268     216.484
  C      -66.268      29.109     214.501
  O      -66.443      28.106     215.499
  C      -64.918      28.929     213.812
  O      -63.845      29.094     214.768
  C      -64.717      27.543     213.201
  O      -65.435      27.410     211.987
  C      -63.204      27.512     213.054
  O      -62.786      28.217     211.877
  C      -62.751      28.255     214.333
  N      -62.332      27.343     215.399
  C      -61.596      27.904     216.444
  O      -61.272      29.092     216.479
  N      -61.221      27.039     217.437
  C      -61.402      25.685     217.433
  O      -60.959      24.941     218.307
  C      -62.159      25.144     216.297
  C      -62.583      25.983     215.347
  O      -69.034      28.185     215.823
  O      -67.489      27.070     217.529
  H      -63.013      27.645     211.115
  H      -68.360      26.703     217.780
  H      -60.678      27.423     218.196
  H      -62.333      24.077     216.265
  H      -63.139      25.603     214.501
  H      -61.913      28.922     214.106
  H      -62.819      26.497     212.977
  H      -65.019      26.771     213.918
  H      -64.812      29.712     213.045
  H      -66.306      30.093     214.984
  H      -67.089      29.037     213.777
  P      -66.025      25.985     211.563
  C      -64.016      25.514     210.025
  O      -64.788      25.056     211.132
  O      -67.156      26.027     210.588
  O      -66.496      25.336     212.950
  H      -67.456      25.163     212.919
  H      -63.225      24.820     209.830
  H      -63.601      26.473     210.252
  H      -64.643      25.592     209.161

 6  7  8  9  10  11  12  13  14  15  16  26  31  32  33  34  35 0
 6-311+G(2d,p)
 ****
 36  37 0
 6-311+G(2d,p)
 ****
 1  2  3  4  5  17  18  19  20  21  22  23  24  25 0
 3-21G
 ****
 27  28  29  30  38  39  40  41  42  43  44  45 0
 3-21G
 ****


