%nproc=1
%NoSave
%Mem=1900MB
#P OB98/GEN NMR

erre ene a

0 1
  C      194.870       7.607      88.338
  O      193.782       6.735      88.594
  P      193.524       5.526      87.577
  C      191.036       6.059      87.057
  O      191.963       5.153      87.637
  C      189.599       5.650      87.383
  O      189.262       4.438      86.657
  C      189.364       5.369      88.871
  O      188.028       5.759      89.223
  C      189.432       3.858      88.960
  O      188.734       3.369      90.104
  C      188.810       3.464      87.620
  N      187.889      -1.462      88.272
  C      187.135      -0.371      88.654
  N      186.029      -0.630      89.385
  N      187.434       0.863      88.343
  C      188.571       0.971      87.614
  C      189.395      -0.037      87.162
  C      189.058      -1.395      87.524
  O      189.698      -2.402      87.241
  N      190.436       0.461      86.422
  C      190.272       1.769      86.459
  N      189.176       2.128      87.202
  O      194.234       4.288      88.305
  O      194.082       5.732      86.210
  H      189.287       3.573      90.882
  H      195.073       4.079      87.857
  H      187.622      -2.393      88.545
  H      190.926       2.494      85.994
  H      187.715       3.518      87.655
  H      190.476       3.533      89.031
  H      185.780      -1.551      89.713
  H      190.075       5.860      89.544
  H      185.484       0.154      89.715
  H      188.922       6.435      87.027
  H      191.169       6.060      85.974
  H      191.233       7.071      87.427
  P      187.901       7.010      90.221
  C      185.544       6.140      90.897
  O      186.333       7.225      90.455
  O      188.325       8.253      89.307
  O      188.736       6.897      91.453
  H      188.671       8.978      89.862
  H      185.132       6.379      91.882
  H      186.118       5.211      90.969
  H      184.720       5.990      90.194
  H      194.912       8.358      89.099
  H      194.737       8.073      87.384
  H      195.782       7.048      88.337

 3  4  5  6  7  8  9  10  11  12  23  26  30  31 0
 6-311+G(2d,p)
 ****
 33  35  36  37  38 0
 6-311+G(2d,p)
 ****
 1  2  13  14  15  16  17  18  19  20  21  22  24  25 0
 3-21G
 ****
 27  28  29  32  34  39  40  41  42  43  44  45  46  47  48  49 0
 3-21G
 ****


