%nproc=1
%NoSave
%Mem=1900MB
#P OB98/GEN NMR

erre ene a

0 1
  C     -981.039     568.256    -603.890
  O     -982.455     568.450    -603.952
  P     -983.410     567.172    -604.109
  C     -984.624     567.006    -601.838
  O     -983.583     566.488    -602.663
  C     -984.089     567.401    -600.461
  O     -983.159     568.507    -600.549
  C     -985.175     567.866    -599.508
  O     -985.941     566.768    -599.031
  C     -984.363     568.595    -598.458
  O     -983.814     567.667    -597.494
  C     -983.226     569.216    -599.291
  N     -983.389     570.649    -599.521
  C     -982.956     571.484    -598.474
  O     -982.507     571.003    -597.436
  N     -983.069     572.841    -598.636
  C     -983.564     573.322    -599.731
  N     -983.648     574.680    -599.847
  C     -984.045     572.473    -600.844
  C     -983.943     571.152    -600.657
  O     -983.061     566.234    -605.211
  O     -984.857     567.836    -604.346
  H     -983.313     568.195    -596.849
  H     -985.380     567.235    -604.906
  H     -984.455     572.922    -601.745
  H     -984.280     570.469    -601.427
  H     -982.260     569.066    -598.791
  H     -984.964     569.311    -597.898
  H     -985.831     568.578    -600.027
  H     -983.569     566.525    -600.036
  H     -983.322     575.227    -599.059
  H     -985.407     566.245    -601.738
  H     -983.980     575.148    -600.676
  H     -985.085     567.861    -602.348
  P     -987.382     566.524    -599.699
  C     -987.648     563.974    -600.145
  O     -987.269     565.255    -600.659
  O     -987.523     567.751    -600.720
  O     -988.517     566.500    -598.732
  H     -988.456     568.021    -600.773
  H     -987.811     563.295    -600.987
  H     -988.568     564.042    -599.549
  H     -986.844     563.585    -599.524
  H     -980.553     569.204    -603.786
  H     -980.704     567.781    -604.788
  H     -980.800     567.638    -603.049

 3  4  5  6  7  8  9  10  11  12  13  23  27  28  29  30  32 0
 6-311+G(2d,p)
 ****
 34  35 0
 6-311+G(2d,p)
 ****
 1  2  14  15  16  17  18  19  20  21  22  24  25  26 0
 3-21G
 ****
 31  33  36  37  38  39  40  41  42  43  44  45  46 0
 3-21G
 ****


