%nproc=1
%NoSave
%Mem=1900MB
#P OB98/GEN NMR

erre ene a

0 1
  C      343.316    -108.167     213.890
  O      341.921    -107.950     213.891
  H      343.769    -107.531     213.126
  H      343.534    -109.211     213.649
  H      343.753    -107.912     214.861
  P      341.035    -108.624     215.042
  C      339.157    -109.317     213.411
  O      339.510    -108.553     214.554
  C      338.157    -108.554     212.533
  O      338.814    -107.355     212.017
  C      337.647    -109.349     211.315
  O      336.320    -108.883     211.035
  C      338.629    -108.900     210.248
  O      338.230    -109.273     208.952
  C      338.687    -107.401     210.577
  N      339.770    -106.663     209.941
  C      339.457    -105.453     209.330
  O      338.329    -104.960     209.293
  N      340.503    -104.795     208.739
  C      341.802    -105.217     208.710
  O      342.702    -104.568     208.190
  C      342.071    -106.504     209.365
  C      341.061    -107.156     209.947
  O      341.279    -108.123     216.428
  O      341.374    -110.186     214.915
  H      342.006    -110.441     215.613
  H      338.943    -109.043     208.320
  H      340.297    -103.915     208.294
  H      343.089    -106.870     209.353
  H      341.231    -108.104     210.448
  H      337.733    -106.928     210.325
  H      339.601    -109.373     210.411
  H      337.626    -110.429     211.486
  H      337.324    -108.213     213.160
  H      338.707    -110.255     213.752
  H      340.061    -109.545     212.837
  P      335.146    -109.831     210.478
  C      334.180    -108.005     208.919
  O      333.933    -108.896     210.001
  O      334.738    -110.909     211.430
  O      335.715    -110.450     209.115
  H      335.283    -111.307     208.943
  H      333.292    -107.447     208.707
  H      334.464    -108.566     208.053
  H      334.970    -107.333     209.183

 6  7  8  9  10  11  12  13  14  15  16  27  31  32  33  34  35 0
 6-311+G(2d,p)
 ****
 36  37 0
 6-311+G(2d,p)
 ****
 1  2  3  4  5  17  18  19  20  21  22  23  24  25 0
 3-21G
 ****
 26  28  29  30  38  39  40  41  42  43  44  45 0
 3-21G
 ****


