%nproc=1
%NoSave
%Mem=1900MB
#P OB98/GEN NMR

erre ene a

0 1
  C      252.321     -82.483    -278.100
  O      251.607     -81.299    -278.464
  P      252.174     -79.871    -278.001
  C      251.311     -78.713    -280.135
  O      251.314     -78.718    -278.712
  C      250.048     -78.025    -280.673
  O      248.866     -78.833    -280.391
  C      249.812     -76.644    -280.037
  O      249.198     -75.755    -280.981
  C      248.794     -76.944    -278.951
  O      248.085     -75.771    -278.555
  C      247.945     -78.012    -279.645
  N      243.278     -79.738    -278.413
  C      243.715     -79.006    -279.461
  N      244.978     -78.602    -279.731
  C      245.832     -79.043    -278.794
  C      245.533     -79.802    -277.676
  C      244.183     -80.148    -277.488
  N      243.732     -80.868    -276.403
  N      246.668     -80.063    -276.937
  C      247.635     -79.421    -277.576
  N      247.183     -78.821    -278.720
  O      253.655     -79.705    -278.090
  O      251.678     -79.778    -276.476
  H      247.562     -76.001    -277.766
  H      252.399     -79.403    -275.927
  H      242.955     -78.700    -280.171
  H      248.664     -79.359    -277.246
  H      247.241     -77.564    -280.359
  H      249.301     -77.354    -278.066
  H      250.717     -76.169    -279.637
  H      250.131     -77.938    -281.766
  H      251.360     -79.741    -280.503
  H      242.734     -80.968    -276.294
  H      244.365     -81.051    -275.640
  H      252.219     -78.217    -280.492
  P      250.148     -75.234    -282.176
  C      248.364     -75.467    -284.078
  O      249.158     -74.622    -283.278
  O      251.117     -76.265    -282.656
  O      250.848     -73.955    -281.515
  H      250.230     -73.330    -281.090
  H      247.676     -74.860    -284.665
  H      247.776     -76.151    -283.457
  H      248.999     -76.043    -284.765
  H      251.810     -83.340    -278.486
  H      252.378     -82.552    -277.034
  H      253.309     -82.443    -278.508

 3  4  5  6  7  8  9  10  11  12  22  25  29  30  31  32 0
 6-311+G(2d,p)
 ****
 33  36  37 0
 6-311+G(2d,p)
 ****
 1  2  13  14  15  16  17  18  19  20  21  23  24  26 0
 3-21G
 ****
 27  28  34  35  38  39  40  41  42  43  44  45  46  47  48 0
 3-21G
 ****


