%nproc=1
%NoSave
%Mem=1900MB
#P OB98/GEN NMR

erre ene a

0 1
  C      524.662     259.196     -53.496
  O      526.002     259.608     -53.300
  H      524.542     258.150     -53.201
  H      524.004     259.815     -52.874
  H      524.379     259.320     -54.546
  P      527.132     258.797     -54.094
  C      527.374     260.986     -55.489
  O      528.030     259.921     -54.814
  C      528.294     261.539     -56.573
  O      529.452     262.166     -55.981
  C      528.836     260.464     -57.526
  O      527.919     260.119     -58.549
  C      530.055     261.181     -58.091
  O      529.642     262.138     -59.081
  C      530.598     261.900     -56.839
  N      535.596     261.180     -55.953
  C      534.930     262.090     -56.711
  N      533.598     262.226     -56.879
  C      532.936     261.311     -56.147
  C      533.475     260.332     -55.339
  C      534.871     260.279     -55.250
  N      535.554     259.331     -54.505
  N      532.472     259.562     -54.771
  C      531.346     260.080     -55.228
  N      531.576     261.120     -56.097
  O      526.336     258.140     -55.330
  O      527.907     257.800     -53.302
  H      529.136     262.827     -58.618
  H      526.877     257.437     -55.753
  H      535.556     262.799     -57.261
  H      530.345     259.734     -54.982
  H      531.061     262.865     -57.079
  H      530.760     260.493     -58.572
  H      529.170     259.576     -56.970
  H      527.747     262.309     -57.140
  H      527.140     261.780     -54.768
  H      536.559     259.288     -54.626
  H      535.031     258.573     -54.097
  H      526.442     260.615     -55.933
  P      527.684     258.562     -58.845
  C      525.100     258.740     -59.076
  O      526.342     258.450     -59.711
  O      527.243     257.983     -57.406
  O      528.879     257.838     -59.390
  H      527.546     257.062     -57.290
  H      524.303     258.621     -59.780
  H      525.110     259.747     -58.715
  H      524.954     258.069     -58.255

 6  7  8  9  10  11  12  13  14  15  25  28  32  33  34  35 0
 6-311+G(2d,p)
 ****
 36  39  40 0
 6-311+G(2d,p)
 ****
 1  2  3  4  5  16  17  18  19  20  21  22  23  24 0
 3-21G
 ****
 26  27  29  30  31  37  38  41  42  43  44  45  46  47 0
 3-21G
 ****
 48 0
 3-21G
 ****


