%nproc=1
%NoSave
%Mem=1900MB
#P OB98/GEN NMR

erre ene a

0 1
  C     -125.073     373.869     837.023
  O     -125.159     374.632     835.836
  H     -124.232     373.181     836.939
  H     -125.990     373.287     837.167
  H     -124.910     374.531     837.880
  P     -126.397     375.640     835.707
  C     -125.343     377.541     837.132
  O     -125.810     377.126     835.851
  C     -124.109     378.424     836.953
  O     -122.999     377.623     836.480
  C     -124.276     379.536     835.931
  O     -125.005     380.650     836.437
  C     -122.831     379.879     835.631
  O     -122.294     380.805     836.590
  C     -122.135     378.505     835.728
  N     -121.809     377.967     834.409
  C     -120.469     377.666     834.198
  O     -119.594     377.824     835.044
  N     -120.160     377.199     832.945
  C     -121.032     377.065     831.903
  O     -120.670     376.690     830.785
  C     -122.429     377.419     832.184
  C     -122.750     377.852     833.405
  O     -127.201     375.413     837.071
  O     -127.262     375.425     834.509
  H     -128.016     374.903     836.892
  H     -122.652     381.676     836.350
  H     -119.193     376.967     832.772
  H     -123.141     377.325     831.380
  H     -123.773     378.130     833.638
  H     -121.200     378.591     836.302
  H     -122.735     380.336     834.651
  H     -124.748     379.143     835.018
  H     -123.837     378.841     837.937
  H     -125.071     376.665     837.727
  H     -126.146     378.083     837.643
  P     -125.851     381.526     835.396
  C     -128.297     380.850     836.105
  O     -127.258     381.819     836.114
  O     -126.176     380.424     834.277
  O     -125.112     382.723     834.908
  H     -126.200     379.531     834.654
  H     -129.146     381.233     836.632
  H     -127.955     379.955     836.582
  H     -128.573     380.632     835.094

 6  7  8  9  10  11  12  13  14  15  16  27  31  32  33  34  35 0
 6-311+G(2d,p)
 ****
 36  37 0
 6-311+G(2d,p)
 ****
 1  2  3  4  5  17  18  19  20  21  22  23  24  25 0
 3-21G
 ****
 26  28  29  30  38  39  40  41  42  43  44  45 0
 3-21G
 ****


