%nproc=1
%NoSave
%Mem=1900MB
#P OB98/GEN NMR

erre ene a

0 1
  C      262.241    -131.954     630.512
  O      262.662    -133.140     631.199
  P      262.625    -133.108     632.803
  C      260.632    -134.744     633.123
  O      261.128    -133.421     633.274
  C      259.177    -134.812     633.586
  O      258.312    -133.970     632.800
  C      258.574    -136.208     633.464
  O      259.055    -137.061     634.496
  C      257.087    -135.897     633.552
  O      256.698    -135.687     634.925
  C      256.999    -134.568     632.786
  N      253.012    -134.247     629.595
  C      253.118    -134.008     630.928
  N      254.214    -134.134     631.701
  C      255.277    -134.510     630.966
  C      255.311    -134.785     629.616
  C      254.115    -134.635     628.905
  N      253.982    -134.886     627.560
  N      256.593    -135.153     629.220
  C      257.301    -135.125     630.321
  N      256.561    -134.740     631.397
  O      262.816    -131.559     633.138
  O      263.684    -133.950     633.450
  H      255.757    -135.397     634.910
  H      263.702    -131.400     633.512
  H      252.212    -133.701     631.423
  H      258.350    -135.402     630.393
  H      256.306    -133.857     633.259
  H      256.466    -136.693     633.155
  H      258.806    -136.647     632.489
  H      259.136    -134.486     634.634
  H      261.242    -135.442     633.707
  H      253.054    -134.844     627.151
  H      254.769    -135.270     627.060
  H      260.723    -135.042     632.067
  P      260.243    -138.086     634.136
  C      261.772    -136.801     635.763
  O      261.586    -137.234     634.422
  O      260.185    -138.100     632.533
  O      260.161    -139.414     634.810
  H      260.093    -137.204     632.167
  H      262.718    -136.273     635.829
  H      261.810    -137.653     636.436
  H      260.956    -136.121     636.056
  H      262.314    -132.109     629.456
  H      262.868    -131.135     630.797
  H      261.227    -131.733     630.771

 3  4  5  6  7  8  9  10  11  12  22  25  29  30  31  32 0
 6-311+G(2d,p)
 ****
 33  36  37 0
 6-311+G(2d,p)
 ****
 1  2  13  14  15  16  17  18  19  20  21  23  24  26 0
 3-21G
 ****
 27  28  34  35  38  39  40  41  42  43  44  45  46  47  48 0
 3-21G
 ****


