%nproc=1
%NoSave
%Mem=1900MB
#P OB98/GEN NMR

erre ene a

0 1
  C     -100.726      -5.787      95.892
  O     -101.014      -7.051      96.489
  P     -102.502      -7.345      97.012
  C     -104.025      -7.259      94.944
  O     -103.320      -8.095      95.851
  C     -104.101      -7.859      93.534
  O     -102.773      -8.001      92.959
  C     -104.773      -9.239      93.469
  O     -105.499      -9.294      92.235
  C     -103.583     -10.177      93.435
  O     -103.924     -11.471      92.961
  C     -102.625      -9.375      92.550
  N     -101.247      -9.825      92.666
  C     -100.320      -9.280      91.776
  O     -100.699      -8.533      90.872
  N      -98.996      -9.621      91.916
  C      -98.659     -10.539      92.768
  N      -97.336     -10.834      92.891
  C      -99.637     -11.265      93.598
  C     -100.895     -10.843      93.516
  O     -103.207      -6.181      97.627
  O     -102.275      -8.512      98.090
  H     -104.500     -11.380      92.173
  H     -102.920      -8.401      98.816
  H      -99.319     -12.079      94.233
  H     -101.685     -11.307      94.088
  H     -102.925      -9.435      91.495
  H     -103.170     -10.285      94.446
  H     -105.461      -9.426      94.298
  H     -104.655      -7.155      92.898
  H      -96.678     -10.344      92.297
  H     -103.527      -6.286      94.892
  H      -96.988     -11.500      93.569
  H     -105.028      -7.065      95.343
  P     -106.948      -9.984      92.218
  C     -108.393      -8.134      93.334
  O     -108.048      -8.820      92.150
  O     -107.089     -10.484      93.740
  O     -107.118     -11.138      91.284
  H     -107.713     -11.234      93.769
  H     -108.923      -7.215      93.063
  H     -107.504      -7.860      93.911
  H     -109.054      -8.754      93.945
  H      -99.697      -5.756      95.601
  H     -100.921      -5.007      96.598
  H     -101.345      -5.651      95.030

 3  4  5  6  7  8  9  10  11  12  13  23  27  28  29  30  32 0
 6-311+G(2d,p)
 ****
 34  35 0
 6-311+G(2d,p)
 ****
 1  2  14  15  16  17  18  19  20  21  22  24  25  26 0
 3-21G
 ****
 31  33  36  37  38  39  40  41  42  43  44  45  46 0
 3-21G
 ****


