%nproc=1
%NoSave
%Mem=1900MB
#P OB98/GEN NMR

erre ene a

0 1
  C      -23.321    -153.926     143.877
  O      -23.345    -155.164     144.600
  P      -22.325    -155.309     145.831
  C      -20.737    -156.980     144.640
  O      -20.877    -155.700     145.246
  C      -19.291    -157.221     144.177
  O      -18.350    -157.008     145.267
  C      -19.045    -158.645     143.652
  O      -18.067    -158.555     142.611
  C      -18.418    -159.344     144.847
  O      -17.713    -160.522     144.455
  C      -17.574    -158.208     145.413
  N      -15.318    -161.449     148.669
  C      -15.519    -161.501     147.333
  N      -16.151    -160.600     146.540
  C      -16.563    -159.547     147.266
  C      -16.441    -159.359     148.625
  C      -15.785    -160.372     149.350
  N      -15.603    -160.338     150.717
  N      -17.028    -158.163     149.010
  C      -17.499    -157.653     147.891
  N      -17.218    -158.434     146.807
  O      -22.814    -156.654     146.552
  O      -22.340    -154.145     146.770
  H      -18.363    -161.143     144.072
  H      -23.256    -156.435     147.396
  H      -15.128    -162.382     146.834
  H      -18.058    -156.729     147.813
  H      -16.629    -158.078     144.863
  H      -19.212    -159.639     145.559
  H      -19.935    -159.160     143.280
  H      -19.051    -156.499     143.395
  H      -21.406    -157.060     143.773
  H      -15.156    -161.118     151.156
  H      -15.986    -159.560     151.243
  H      -21.062    -157.752     145.347
  P      -18.511    -159.076     141.161
  C      -17.585    -161.474     141.553
  O      -18.722    -160.663     141.302
  O      -17.176    -158.941     140.286
  O      -19.650    -158.318     140.566
  H      -17.403    -158.838     139.341
  H      -17.857    -162.252     142.275
  H      -16.746    -160.903     141.953
  H      -17.273    -161.953     140.616
  H      -24.043    -153.960     143.088
  H      -22.346    -153.774     143.462
  H      -23.556    -153.121     144.541

 3  4  5  6  7  8  9  10  11  12  22  25  29  30  31  32 0
 6-311+G(2d,p)
 ****
 33  36  37 0
 6-311+G(2d,p)
 ****
 1  2  13  14  15  16  17  18  19  20  21  23  24  26 0
 3-21G
 ****
 27  28  34  35  38  39  40  41  42  43  44  45  46  47  48 0
 3-21G
 ****


