%nproc=1
%NoSave
%Mem=1900MB
#P OB98/GEN NMR

erre ene a

0 1
  C     -185.984     164.742    -133.072
  O     -185.667     163.342    -132.994
  P     -184.755     162.680    -134.140
  C     -186.771     161.354    -135.149
  O     -185.450     161.321    -134.629
  C     -186.827     160.617    -136.491
  O     -186.105     161.352    -137.504
  C     -186.192     159.234    -136.476
  O     -187.028     158.273    -135.854
  C     -185.982     158.983    -137.964
  O     -187.189     158.498    -138.579
  C     -185.637     160.394    -138.479
  N     -184.213     160.561    -138.750
  C     -183.879     161.096    -139.990
  O     -184.711     161.364    -140.855
  N     -182.542     161.279    -140.220
  C     -181.526     160.923    -139.378
  O     -180.345     161.095    -139.650
  C     -181.938     160.289    -138.117
  C     -183.240     160.137    -137.869
  O     -183.508     162.129    -133.294
  O     -184.294     163.606    -135.217
  H     -187.328     157.590    -138.245
  H     -182.713     162.108    -133.861
  H     -182.279     161.690    -141.101
  H     -181.164     159.972    -137.432
  H     -183.560     159.670    -136.940
  H     -186.195     160.606    -139.399
  H     -185.203     158.238    -138.156
  H     -185.215     159.278    -135.979
  H     -187.879     160.555    -136.801
  H     -187.074     162.393    -135.299
  H     -187.450     160.890    -134.427
  P     -186.724     157.942    -134.311
  C     -185.606     155.677    -134.986
  O     -186.599     156.348    -134.239
  O     -188.139     158.281    -133.643
  O     -185.575     158.720    -133.763
  H     -188.883     158.078    -134.237
  H     -184.700     156.278    -135.080
  H     -185.997     155.448    -135.981
  H     -185.359     154.741    -134.479
  H     -186.594     165.017    -132.237
  H     -186.514     164.938    -133.981
  H     -185.080     165.314    -133.056

 3  4  5  6  7  8  9  10  11  12  13  23  28  29  30  31  32 0
 6-311+G(2d,p)
 ****
 33  34 0
 6-311+G(2d,p)
 ****
 1  2  14  15  16  17  18  19  20  21  22  24  25  26 0
 3-21G
 ****
 27  35  36  37  38  39  40  41  42  43  44  45 0
 3-21G
 ****


