%nproc=1
%NoSave
%Mem=1900MB
#P OB98/GEN NMR

erre ene a

0 1
  C     -557.823    -557.004     320.105
  O     -556.549    -557.452     320.511
  H     -558.544    -557.825     320.151
  H     -558.151    -556.209     320.782
  H     -557.773    -556.603     319.085
  P     -555.875    -558.620     319.638
  C     -556.269    -560.418     321.479
  O     -556.543    -559.988     320.151
  C     -556.012    -561.920     321.488
  O     -557.154    -562.623     320.957
  C     -554.827    -562.364     320.647
  O     -553.588    -562.188     321.317
  C     -555.147    -563.840     320.462
  O     -554.818    -564.563     321.663
  C     -556.664    -563.801     320.262
  N     -556.576    -566.197     315.736
  C     -556.075    -566.537     316.940
  N     -556.138    -565.833     318.098
  C     -556.798    -564.682     317.924
  C     -557.370    -564.208     316.753
  C     -557.241    -565.029     315.612
  N     -557.738    -564.686     314.375
  N     -557.939    -562.966     316.947
  C     -557.752    -562.718     318.230
  N     -557.064    -563.722     318.857
  O     -554.386    -558.711     320.211
  O     -555.909    -558.421     318.158
  H     -553.849    -564.529     321.757
  H     -553.800    -559.142     319.561
  H     -555.547    -567.485     316.993
  H     -558.100    -561.829     318.747
  H     -557.164    -564.671     320.687
  H     -554.586    -564.302     319.641
  H     -554.825    -561.869     319.663
  H     -555.882    -562.236     322.535
  H     -557.130    -560.192     322.117
  H     -557.438    -565.248     313.597
  H     -558.099    -563.749     314.243
  H     -555.389    -559.881     321.855
  P     -552.320    -561.785     320.422
  C     -551.497    -564.251     320.175
  O     -551.984    -563.070     319.529
  O     -551.123    -561.753     321.490
  O     -552.455    -560.495     319.683
  H     -550.416    -561.146     321.196
  H     -551.323    -565.012     319.443
  H     -552.222    -564.596     320.882
  H     -550.582    -564.028     320.683

 6  7  8  9  10  11  12  13  14  15  25  28  32  33  34  35 0
 6-311+G(2d,p)
 ****
 36  39  40 0
 6-311+G(2d,p)
 ****
 1  2  3  4  5  16  17  18  19  20  21  22  23  24 0
 3-21G
 ****
 26  27  29  30  31  37  38  41  42  43  44  45  46  47 0
 3-21G
 ****
 48 0
 3-21G
 ****


