%nproc=1
%NoSave
%Mem=1900MB
#P OB98/GEN NMR

erre ene a

0 1
  C     -460.499      12.364    -147.334
  O     -460.484      13.741    -147.713
  P     -460.241      14.924    -146.652
  C     -458.103      15.715    -147.845
  O     -458.674      15.268    -146.618
  C     -456.565      15.823    -147.755
  O     -456.006      14.580    -147.232
  C     -455.865      16.070    -149.090
  O     -455.948      17.439    -149.438
  C     -454.447      15.577    -148.767
  O     -453.708      16.577    -148.064
  C     -454.728      14.361    -147.869
  N     -452.060      10.077    -148.683
  C     -451.828      11.145    -147.894
  N     -452.595      12.263    -147.736
  C     -453.706      12.178    -148.490
  C     -454.070      11.155    -149.342
  C     -453.193      10.062    -149.440
  N     -453.427       8.982    -150.257
  N     -455.280      11.453    -149.960
  C     -455.630      12.614    -149.461
  N     -454.712      13.100    -148.568
  O     -460.839      14.671    -145.300
  O     -460.895      16.222    -147.328
  H     -454.239      16.839    -147.294
  H     -461.184      16.839    -146.635
  H     -450.916      11.109    -147.310
  H     -456.546      13.146    -149.730
  H     -453.983      14.298    -147.057
  H     -453.885      15.320    -149.666
  H     -456.306      15.428    -149.867
  H     -456.323      16.604    -147.033
  H     -458.509      16.713    -148.076
  H     -452.739       8.250    -150.298
  H     -454.240       8.978    -150.863
  H     -458.384      15.022    -148.638
  P     -457.177      17.959    -150.343
  C     -457.964      19.639    -148.563
  O     -458.305      18.511    -149.328
  O     -457.680      16.988    -151.373
  O     -456.627      19.287    -151.011
  H     -457.060      19.412    -151.880
  H     -457.332      19.343    -147.722
  H     -458.866      20.115    -148.194
  H     -457.398      20.367    -149.174
  H     -460.677      11.758    -148.198
  H     -461.276      12.200    -146.617
  H     -459.555      12.102    -146.903

 3  4  5  6  7  8  9  10  11  12  22  25  29  30  31  32 0
 6-311+G(2d,p)
 ****
 33  36  37 0
 6-311+G(2d,p)
 ****
 1  2  13  14  15  16  17  18  19  20  21  23  24  26 0
 3-21G
 ****
 27  28  34  35  38  39  40  41  42  43  44  45  46  47  48 0
 3-21G
 ****


