%nproc=1
%NoSave
%Mem=1900MB
#P OB98/GEN NMR

erre ene a

0 1
  C     -143.212     292.274    -285.943
  O     -143.261     290.936    -286.456
  P     -142.154     290.328    -287.451
  C     -140.936     288.721    -285.841
  O     -141.775     288.838    -286.984
  C     -140.716     287.256    -285.449
  O     -141.928     286.708    -284.842
  C     -140.328     286.331    -286.616
  O     -139.356     285.410    -286.112
  C     -141.652     285.637    -286.921
  O     -141.510     284.446    -287.672
  C     -142.178     285.442    -285.496
  N     -143.586     285.077    -285.390
  C     -143.959     283.793    -285.819
  O     -143.141     283.018    -286.324
  N     -145.274     283.417    -285.688
  C     -146.143     284.236    -285.187
  N     -147.428     283.795    -285.077
  C     -145.799     285.601    -284.743
  C     -144.519     285.947    -284.871
  O     -140.960     291.215    -287.628
  O     -142.905     290.113    -288.848
  H     -142.287     290.298    -289.581
  H     -142.390     284.032    -287.750
  H     -146.555     286.250    -284.326
  H     -144.179     286.928    -284.539
  H     -141.564     284.691    -284.985
  H     -142.281     286.322    -287.497
  H     -139.894     286.861    -287.472
  H     -139.939     287.229    -284.671
  H     -147.621     282.845    -285.383
  H     -141.415     289.244    -285.004
  H     -148.178     284.350    -284.691
  H     -139.977     289.209    -286.048
  P     -137.989     285.182    -286.907
  C     -136.606     285.239    -284.695
  O     -136.929     284.541    -285.885
  O     -137.435     286.681    -287.052
  O     -138.100     284.541    -288.255
  H     -136.850     286.736    -287.835
  H     -136.598     284.531    -283.863
  H     -137.317     286.037    -284.471
  H     -135.603     285.675    -284.799
  H     -144.055     292.443    -285.306
  H     -143.235     292.969    -286.756
  H     -142.310     292.409    -285.384

 3  4  5  6  7  8  9  10  11  12  13  24  27  28  29  30  32 0
 6-311+G(2d,p)
 ****
 34  35 0
 6-311+G(2d,p)
 ****
 1  2  14  15  16  17  18  19  20  21  22  23  25  26 0
 3-21G
 ****
 31  33  36  37  38  39  40  41  42  43  44  45  46 0
 3-21G
 ****


