%nproc=1
%NoSave
%Mem=1900MB
#P OB98/GEN NMR

erre ene a

0 1
  C      520.660    -262.091    -219.979
  O      521.078    -263.312    -220.621
  P      520.522    -263.649    -222.094
  C      518.670    -265.400    -221.483
  O      519.931    -265.140    -222.089
  C      518.715    -266.731    -220.730
  O      518.868    -266.507    -219.307
  C      517.450    -267.573    -220.866
  O      517.383    -268.228    -222.116
  C      517.600    -268.531    -219.688
  O      518.455    -269.640    -220.030
  C      518.269    -267.633    -218.625
  N      517.337    -267.200    -217.590
  C      517.070    -268.111    -216.576
  O      517.532    -269.251    -216.555
  N      516.224    -267.682    -215.588
  C      515.573    -266.477    -215.555
  O      514.806    -266.155    -214.655
  C      515.834    -265.586    -216.699
  C      516.682    -265.981    -217.651
  O      521.879    -263.832    -222.929
  O      519.658    -262.602    -222.715
  H      519.291    -269.255    -220.357
  H      521.724    -263.606    -223.865
  H      516.039    -268.315    -214.828
  H      515.321    -264.632    -216.723
  H      516.885    -265.333    -218.497
  H      519.099    -268.168    -218.150
  H      516.642    -268.956    -219.370
  H      516.570    -266.943    -220.705
  H      519.590    -267.296    -221.079
  H      517.899    -265.451    -222.257
  H      518.432    -264.577    -220.800
  P      515.909    -268.439    -222.737
  C      515.997    -271.056    -222.721
  O      515.968    -269.861    -223.477
  O      515.920    -267.359    -223.919
  O      514.822    -268.262    -221.731
  H      516.804    -267.250    -224.312
  H      515.420    -270.962    -221.794
  H      517.029    -271.312    -222.482
  H      515.561    -271.864    -223.323
  H      521.117    -262.021    -219.014
  H      519.596    -262.091    -219.870
  H      520.957    -261.254    -220.576

 3  4  5  6  7  8  9  10  11  12  13  23  28  29  30  31  32 0
 6-311+G(2d,p)
 ****
 33  34 0
 6-311+G(2d,p)
 ****
 1  2  14  15  16  17  18  19  20  21  22  24  25  26 0
 3-21G
 ****
 27  35  36  37  38  39  40  41  42  43  44  45 0
 3-21G
 ****


