%nproc=1
%NoSave
%Mem=1900MB
#P OB98/GEN NMR

erre ene a

0 1
  C      318.163      -8.002      73.533
  O      317.476      -8.819      72.607
  H      317.483      -7.219      73.883
  H      319.019      -7.530      73.042
  H      318.502      -8.586      74.394
  P      318.171     -10.214      72.219
  C      319.195      -9.447      69.957
  O      319.436      -9.852      71.297
  C      320.462      -8.856      69.345
  O      320.895      -7.704      70.104
  C      321.648      -9.816      69.305
  O      321.588     -10.673      68.172
  C      322.798      -8.833      69.184
  O      322.882      -8.342      67.827
  C      322.352      -7.697      70.120
  N      325.083      -5.577      73.829
  C      324.900      -5.172      72.522
  N      325.541      -4.043      72.146
  N      324.159      -5.813      71.657
  C      323.596      -6.935      72.163
  C      323.707      -7.445      73.441
  C      324.518      -6.715      74.390
  O      324.706      -7.027      75.564
  N      322.996      -8.604      73.587
  C      322.470      -8.811      72.394
  N      322.806      -7.829      71.494
  O      317.123     -10.857      71.190
  O      318.440     -11.134      73.363
  H      321.993      -8.019      67.584
  H      316.608     -11.544      71.652
  H      325.674      -5.048      74.453
  H      321.836      -9.647      72.133
  H      322.678      -6.715      69.769
  H      323.764      -9.284      69.418
  H      326.148      -3.512      72.756
  H      321.742     -10.383      70.240
  H      325.419      -3.725      71.192
  H      320.211      -8.507      68.336
  H      318.398      -8.696      69.949
  H      318.871     -10.319      69.378
  P      322.128     -12.173      68.330
  C      324.294     -11.727      66.970
  O      323.729     -12.111      68.219
  O      321.684     -12.851      66.946
  O      321.593     -12.924      69.498
  H      320.986     -13.513      67.106
  H      325.361     -11.730      67.045
  H      323.958     -10.744      66.713
  H      323.988     -12.418      66.213

 6  7  8  9  10  11  12  13  14  15  26  29  33  34 0
 6-311+G(2d,p)
 ****
 36  38  39  40  41 0
 6-311+G(2d,p)
 ****
 1  2  3  4  5  16  17  18  19  20  21  22  23  24  25 0
 3-21G
 ****
 27  28  30  31  32  35  37  42  43  44  45  46  47 0
 3-21G
 ****
 48  49 0
 3-21G
 ****


