%nproc=1
%NoSave
%Mem=1900MB
#P OB98/GEN NMR

erre ene a

0 1
  C     -167.656     -87.639       0.220
  O     -168.438     -87.353      -0.920
  P     -169.927     -86.781      -0.787
  C     -170.971     -84.572       0.030
  O     -169.821     -85.411       0.051
  C     -171.182     -83.926       1.405
  O     -171.786     -84.915       2.298
  C     -169.863     -83.449       2.051
  O     -169.876     -82.085       2.481
  C     -169.637     -84.478       3.146
  O     -168.773     -84.037       4.178
  C     -171.071     -84.832       3.547
  N     -171.151     -86.068       4.318
  C     -170.994     -85.967       5.697
  O     -170.807     -84.914       6.301
  N     -170.997     -87.147       6.387
  C     -171.023     -88.395       5.842
  O     -170.923     -89.414       6.514
  C     -171.150     -88.438       4.376
  C     -171.230     -87.296       3.691
  O     -170.938     -87.744      -0.262
  O     -170.241     -86.245      -2.263
  H     -168.799     -84.697       4.895
  H     -169.636     -85.554      -2.586
  H     -170.883     -87.089       7.388
  H     -171.163     -89.417       3.912
  H     -171.325     -87.297       2.610
  H     -171.531     -84.031       4.131
  H     -169.161     -85.354       2.687
  H     -169.038     -83.492       1.333
  H     -171.883     -83.097       1.282
  H     -171.846     -85.178      -0.217
  H     -170.864     -83.812      -0.752
  P     -168.578     -81.178       2.690
  C     -166.753     -80.260       1.080
  O     -167.673     -81.292       1.376
  O     -167.853     -81.387       3.978
  O     -169.149     -79.683       2.605
  H     -168.596     -79.091       3.146
  H     -166.613     -80.216      -0.004
  H     -165.791     -80.489       1.548
  H     -167.110     -79.289       1.431
  H     -166.700     -88.009      -0.087
  H     -168.150     -88.378       0.815
  H     -167.525     -86.747       0.796

 3  4  5  6  7  8  9  10  11  12  13  23  28  29  30  31  32 0
 6-311+G(2d,p)
 ****
 33  34 0
 6-311+G(2d,p)
 ****
 1  2  14  15  16  17  18  19  20  21  22  24  25  26  27 0
 3-21G
 ****
 35  36  37  38  39  40  41  42  43  44  45 0
 3-21G
 ****


