%nproc=1
%NoSave
%Mem=1900MB
#P OB98/GEN NMR

erre ene a

0 1
  C      153.955      55.228      51.336
  O      153.319      54.766      52.512
  H      155.036      55.190      51.485
  H      153.662      56.261      51.131
  H      153.691      54.591      50.488
  P      151.715      54.722      52.492
  C      151.488      52.153      52.819
  O      151.308      53.267      51.954
  C      151.979      50.952      52.016
  O      153.316      51.206      51.525
  C      152.082      49.668      52.828
  O      150.825      49.045      53.017
  C      153.039      48.856      51.970
  O      152.352      48.194      50.901
  C      153.982      49.928      51.412
  N      158.138      47.215      52.608
  C      157.079      46.942      51.813
  N      156.016      47.726      51.536
  C      156.130      48.913      52.154
  C      157.151      49.334      52.991
  C      158.198      48.423      53.212
  N      159.262      48.690      54.040
  N      156.894      50.604      53.468
  C      155.745      50.949      52.925
  N      155.248      49.960      52.120
  O      151.343      55.695      51.277
  O      151.054      55.140      53.761
  H      151.823      48.881      50.449
  H      151.083      56.569      51.626
  H      157.083      45.961      51.347
  H      155.234      51.889      53.086
  H      154.208      49.771      50.351
  H      153.543      48.094      52.564
  H      152.562      49.871      53.794
  H      151.318      50.815      51.151
  H      150.532      51.904      53.293
  H      152.211      52.420      53.596
  H      159.939      47.965      54.207
  H      159.257      49.543      54.585
  P      150.378      48.710      54.520
  C      148.203      50.135      54.717
  O      149.571      49.980      55.070
  O      151.751      48.744      55.345
  O      149.668      47.409      54.680
  H      151.730      48.069      56.049
  H      147.818      51.028      55.164
  H      147.646      49.292      55.068
  H      148.115      50.202      53.653

 6  7  8  9  10  11  12  13  14  15  25  28  32  33  34  35 0
 6-311+G(2d,p)
 ****
 36  37  40 0
 6-311+G(2d,p)
 ****
 1  2  3  4  5  16  17  18  19  20  21  22  23  24 0
 3-21G
 ****
 26  27  29  30  31  38  39 41  42  43  44  45  46  47  48 0
 3-21G
 ****


