%nproc=1
%NoSave
%Mem=1900MB
#P OB98/GEN NMR

erre ene a

0 1
  C      318.991     212.373    -289.599
  O      320.333     212.244    -289.171
  H      318.838     213.395    -289.957
  H      318.310     212.193    -288.762
  H      318.775     211.681    -290.415
  P      320.854     210.807    -288.687
  C      320.927     209.408    -290.844
  O      321.678     210.177    -289.915
  C      321.801     208.326    -291.479
  O      320.958     207.449    -292.265
  C      322.895     208.881    -292.397
  O      324.068     208.082    -292.237
  C      322.324     208.673    -293.787
  O      323.342     208.553    -294.780
  C      321.496     207.403    -293.603
  N      320.071     205.183    -297.912
  C      321.197     204.984    -297.135
  N      322.091     204.076    -297.581
  N      321.427     205.622    -296.018
  C      320.441     206.491    -295.680
  C      319.284     206.779    -296.362
  C      319.045     206.074    -297.607
  O      318.076     206.218    -298.344
  N      318.547     207.738    -295.714
  C      319.262     208.032    -294.644
  N      320.425     207.310    -294.584
  O      319.808     209.904    -288.116
  O      321.993     211.147    -287.619
  H      323.902     209.355    -294.715
  H      321.652     211.056    -286.710
  H      319.948     204.669    -298.766
  H      318.990     208.757    -293.888
  H      322.101     206.493    -293.703
  H      321.683     209.525    -294.053
  H      321.973     203.535    -298.424
  H      323.129     209.931    -292.198
  H      322.913     203.898    -297.016
  H      322.233     207.715    -290.675
  H      320.551     210.081    -291.622
  H      320.073     208.949    -290.331
  P      325.495     208.731    -292.574
  C      325.890     210.484    -290.724
  O      326.185     209.172    -291.191
  O      325.496     209.771    -293.644
  O      326.373     207.455    -293.004
  H      327.048     207.742    -293.651
  H      326.404     210.658    -289.802
  H      324.836     210.578    -290.568
  H      326.208     211.201    -291.451

 6  7  8  9  10  11  12  13  14  15  26  29  33  34 0
 6-311+G(2d,p)
 ****
 36  38  39  40  41 0
 6-311+G(2d,p)
 ****
 1  2  3  4  5  16  17  18  19  20  21  22  23  24  25 0
 3-21G
 ****
 27  28  30  31  32  35  37  42  43  44  45  46  47 0
 3-21G
 ****
 48  49 0
 3-21G
 ****


