%nproc=1
%NoSave
%Mem=1900MB
#P OB98/GEN NMR

erre ene a

0 1
  C     -472.166     664.176    -645.923
  O     -472.648     662.907    -645.487
  P     -474.073     662.454    -646.100
  C     -473.496     660.144    -647.187
  O     -473.780     661.538    -647.385
  C     -473.676     659.335    -648.464
  O     -475.065     659.408    -648.942
  C     -472.776     659.804    -649.619
  O     -472.420     658.634    -650.366
  C     -473.727     660.658    -650.415
  O     -473.261     660.936    -651.757
  C     -474.999     659.825    -650.311
  N     -477.709     661.523    -654.273
  C     -476.604     660.838    -654.216
  N     -475.921     660.432    -653.120
  C     -476.570     660.800    -651.987
  C     -477.749     661.511    -651.912
  C     -478.376     661.907    -653.122
  N     -479.529     662.633    -653.200
  N     -478.093     661.723    -650.560
  C     -477.108     661.235    -649.869
  N     -476.218     660.574    -650.683
  O     -474.629     663.805    -646.730
  O     -474.970     661.870    -645.109
  H     -473.202     660.126    -652.237
  H     -475.263     664.222    -646.119
  H     -476.145     660.579    -655.151
  H     -476.951     661.270    -648.812
  H     -474.983     658.938    -650.972
  H     -473.831     661.632    -649.955
  H     -471.837     660.356    -649.293
  H     -473.477     658.272    -648.220
  H     -474.168     659.754    -646.412
  H     -479.890     662.847    -654.091
  H     -480.003     662.927    -652.354
  H     -472.491     660.048    -646.753
  P     -471.434     657.576    -649.663
  C     -473.263     655.786    -649.577
  O     -472.377     656.594    -648.818
  O     -470.753     658.472    -648.477
  O     -470.386     656.926    -650.579
  H     -471.446     658.930    -648.006
  H     -473.800     655.104    -648.910
  H     -472.659     655.140    -650.287
  H     -474.000     656.414    -650.106
  H     -471.222     664.377    -645.460
  H     -472.867     664.937    -645.650
  H     -472.047     664.166    -646.986

 3  4  5  6  7  8  9  10  11  12  22  25  29  30  31  32 0
 6-311+G(2d,p)
 ****
 33  36  37 0
 6-311+G(2d,p)
 ****
 1  2  13  14  15  16  17  18  19  20  21  23  24  26 0
 3-21G
 ****
 27  28  34  35  38  39  40  41  42  43  44  45  46  47  48 0
 3-21G
 ****


