%nproc=1
%NoSave
%Mem=1900MB
#P OB98/GEN NMR

erre ene a

0 1
  C     -129.362     434.150      58.683
  O     -128.415     434.652      59.608
  H     -129.435     434.847      57.844
  H     -130.347     434.057      59.150
  H     -129.040     433.176      58.299
  P     -128.153     433.827      60.958
  C     -126.319     432.382      59.846
  O     -127.580     432.394      60.501
  C     -125.189     432.239      60.869
  O     -125.453     431.134      61.756
  C     -123.815     431.982      60.253
  O     -123.231     433.196      59.808
  C     -123.084     431.382      61.445
  O     -122.713     432.436      62.367
  C     -124.177     430.500      62.073
  N     -122.004     425.914      62.342
  C     -121.600     427.119      62.887
  N     -120.439     427.108      63.577
  N     -122.271     428.238      62.761
  C     -123.376     428.116      61.985
  C     -123.869     426.979      61.375
  C     -123.154     425.736      61.583
  O     -123.495     424.640      61.133
  N     -124.965     427.264      60.592
  C     -125.161     428.553      60.774
  N     -124.221     429.123      61.604
  O     -129.303     433.745      61.916
  O     -126.874     434.538      61.616
  H     -122.520     432.010      63.225
  H     -127.142     435.237      62.239
  H     -121.446     425.088      62.469
  H     -125.971     429.132      60.332
  H     -124.095     430.457      63.168
  H     -122.164     430.863      61.164
  H     -119.805     426.315      63.585
  H     -123.866     431.233      59.456
  H     -120.098     427.996      63.936
  H     -125.180     433.150      61.486
  H     -126.222     433.325      59.293
  H     -126.271     431.558      59.127
  P     -121.988     433.207      58.786
  C     -123.853     433.354      56.987
  O     -122.611     432.782      57.359
  O     -120.814     432.402      59.216
  O     -121.678     434.759      58.557
  H     -121.079     435.135      59.256
  H     -124.142     432.985      56.025
  H     -123.757     434.419      56.946
  H     -124.598     433.090      57.709

 6  7  8  9  10  11  12  13  14  15  26  29  33  34 0
 6-311+G(2d,p)
 ****
 36  38  39  40  41 0
 6-311+G(2d,p)
 ****
 1  2  3  4  5  16  17  18  19  20  21  22  23  24  25 0
 3-21G
 ****
 27  28  30  31  32  35  37  42  43  44  45  46  47 0
 3-21G
 ****
 48  49 0
 3-21G
 ****


