%nproc=1
%NoSave
%Mem=1900MB
#P OB98/GEN NMR

erre ene a

0 1
  C     -592.371     106.678    -370.625
  O     -593.580     106.183    -371.218
  P     -594.830     107.180    -371.362
  C     -595.731     106.254    -369.128
  O     -596.036     106.595    -370.477
  C     -597.004     106.083    -368.304
  O     -597.684     107.343    -368.099
  C     -598.032     105.175    -368.970
  O     -597.644     103.816    -368.872
  C     -599.298     105.547    -368.204
  O     -599.372     104.847    -366.954
  C     -599.088     107.065    -367.957
  N     -599.898     107.903    -368.823
  C     -601.279     107.837    -368.629
  O     -601.757     107.069    -367.793
  N     -602.092     108.635    -369.402
  C     -601.567     109.419    -370.295
  N     -602.426     110.188    -371.029
  C     -600.113     109.511    -370.545
  C     -599.353     108.725    -369.790
  O     -595.193     107.558    -372.765
  O     -594.365     108.461    -370.522
  H     -598.581     105.124    -366.448
  H     -594.781     109.258    -370.906
  H     -599.725     110.187    -371.291
  H     -598.266     108.730    -369.901
  H     -599.347     107.314    -366.915
  H     -600.203     105.295    -368.771
  H     -598.138     105.461    -370.026
  H     -596.729     105.676    -367.315
  H     -603.410     110.102    -370.848
  H     -595.102     107.041    -368.690
  H     -602.113     110.868    -371.713
  H     -595.128     105.343    -369.122
  P     -596.614     103.260    -369.970
  C     -598.471     101.822    -371.090
  O     -597.183     101.857    -370.499
  O     -595.342     102.829    -369.088
  O     -596.234     104.247    -371.028
  H     -594.530     102.988    -369.604
  H     -598.566     100.902    -371.674
  H     -598.615     102.676    -371.761
  H     -599.233     101.837    -370.306
  H     -591.639     105.897    -370.602
  H     -592.572     107.008    -369.627
  H     -592.000     107.498    -371.204

 3  4  5  6  7  8  9  10  11  12  13  23  27  28  29  30  32 0
 6-311+G(2d,p)
 ****
 34  35 0
 6-311+G(2d,p)
 ****
 1  2  14  15  16  17  18  19  20  21  22  24  25  26 0
 3-21G
 ****
 31  33  36  37  38  39  40  41  42  43  44  45  46 0
 3-21G
 ****


