%nproc=1
%NoSave
%Mem=1900MB
#P OB98/GEN NMR

erre ene a

0 1
  C     -896.170     188.969      28.222
  O     -896.680     190.188      27.697
  P     -895.640     191.413      27.531
  C     -895.570     191.227      24.921
  O     -894.860     191.171      26.152
  C     -894.800     192.090      23.912
  O     -893.510     191.500      23.651
  C     -895.490     192.193      22.557
  O     -896.550     193.146      22.583
  C     -894.330     192.605      21.659
  O     -894.110     194.020      21.719
  C     -893.150     191.837      22.295
  N     -892.770     190.649      21.516
  C     -891.430     190.487      21.254
  O     -890.570     191.292      21.621
  N     -891.080     189.381      20.516
  C     -891.960     188.475      19.973
  O     -891.580     187.541      19.274
  C     -893.380     188.714      20.255
  C     -893.720     189.779      20.992
  O     -894.540     191.134      28.648
  O     -896.260     192.757      27.677
  H     -894.240     194.280      22.649
  H     -894.220     191.979      29.019
  H     -890.110     189.233      20.340
  H     -894.100     188.017      19.849
  H     -894.770     189.976      21.211
  H     -892.280     192.488      22.358
  H     -894.520     192.353      20.608
  H     -895.860     191.205      22.245
  H     -894.650     193.078      24.356
  H     -896.560     191.677      25.099
  H     -895.730     190.218      24.539
  P     -897.940     192.705      21.922
  C     -899.360     191.913      23.971
  O     -898.530     191.574      22.887
  O     -897.420     191.930      20.617
  O     -898.850     193.872      21.638
  H     -896.560     191.471      20.787
  H     -900.000     192.763      23.728
  H     -898.730     192.173      24.845
  H     -899.990     191.062      24.210
  H     -896.958     188.248      28.279
  H     -895.772     189.141      29.200
  H     -895.395     188.601      27.582

 3  4  5  6  7  8  9  10  11  12  13  23  28  29  30  31  32 0
 6-311+G(2d,p)
 ****
 33  34 0
 6-311+G(2d,p)
 ****
 1  2  14  15  16  17  18  19  20  21  22  24  25  26 0
 3-21G
 ****
 27  35  36  37  38  39  40  41  42  43  44  45 0
 3-21G
 ****


