%nproc=1
%NoSave
%Mem=1900MB
#P OB98/GEN NMR

erre ene a

0 1
  C     -256.722     352.988    -387.598
  O     -256.005     354.063    -388.205
  P     -256.535     355.561    -387.984
  C     -255.420     357.827    -387.429
  O     -255.288     356.568    -388.087
  C     -254.043     358.462    -387.199
  O     -253.308     357.679    -386.216
  C     -253.138     358.517    -388.444
  O     -253.229     359.654    -389.299
  C     -251.755     358.571    -387.803
  O     -251.433     359.924    -387.438
  C     -251.908     357.717    -386.546
  N     -247.681     354.839    -386.844
  C     -247.860     356.167    -386.665
  N     -249.022     356.853    -386.599
  C     -250.077     356.026    -386.718
  C     -250.043     354.652    -386.904
  C     -248.771     354.046    -386.966
  N     -248.592     352.701    -387.156
  N     -251.322     354.147    -386.994
  C     -252.109     355.201    -386.887
  N     -251.402     356.362    -386.710
  O     -257.435     355.768    -386.812
  O     -257.315     355.850    -389.355
  H     -250.590     359.890    -386.959
  H     -258.114     356.386    -389.163
  H     -246.947     356.755    -386.569
  H     -253.195     355.175    -386.933
  H     -251.376     358.149    -385.685
  H     -250.963     358.239    -388.491
  H     -253.241     357.600    -389.037
  H     -254.173     359.482    -386.799
  H     -255.927     357.681    -386.467
  H     -247.646     352.357    -387.241
  H     -249.395     352.105    -387.312
  H     -256.080     358.444    -388.040
  P     -254.078     359.610    -390.668
  C     -255.870     361.380    -391.350
  O     -254.544     361.120    -390.927
  O     -255.175     358.600    -390.698
  O     -252.935     359.387    -391.775
  H     -252.338     360.147    -391.887
  H     -256.058     362.460    -391.265
  H     -256.599     360.851    -390.729
  H     -255.995     361.096    -392.403
  H     -256.245     352.061    -387.838
  H     -257.727     352.978    -387.964
  H     -256.731     353.120    -386.536

 3  4  5  6  7  8  9  10  11  12  22  25  29  30  31  32 0
 6-311+G(2d,p)
 ****
 33  36  37 0
 6-311+G(2d,p)
 ****
 1  2  13  14  15  16  17  18  19  20  21  23  24  26 0
 3-21G
 ****
 27  28  34  35  38  39  40  41  42  43  44  45  46  47  48 0
 3-21G
 ****


