%nproc=1
%NoSave
%Mem=1900MB
#P OB98/GEN NMR

erre ene a

0 1
  C      -11.510      35.075     160.317
  O      -12.348      35.681     159.354
  H      -10.538      34.881     159.858
  H      -11.933      34.125     160.655
  H      -11.365      35.744     161.169
  P      -13.880      35.962     159.747
  C      -14.427      33.537     159.016
  O      -14.483      34.503     160.054
  C      -15.837      33.120     158.605
  O      -15.807      32.269     157.441
  C      -16.598      32.315     159.654
  O      -17.060      33.100     160.742
  C      -17.736      31.778     158.799
  O      -18.697      32.823     158.565
  C      -16.985      31.414     157.495
  N      -16.596      30.005     157.435
  C      -17.470      29.143     156.759
  O      -18.505      29.573     156.250
  N      -17.169      27.803     156.705
  C      -16.100      27.361     157.292
  N      -15.873      26.017     157.250
  C      -15.145      28.234     157.999
  C      -15.452      29.530     158.036
  O      -14.668      36.790     158.784
  O      -13.804      36.593     161.216
  H      -18.880      33.239     159.427
  H      -14.729      36.798     161.500
  H      -14.273      27.813     158.478
  H      -14.808      30.233     158.551
  H      -17.595      31.651     156.616
  H      -18.269      30.944     159.265
  H      -15.999      31.470     160.009
  H      -16.382      34.030     158.323
  H      -16.570      25.444     156.794
  H      -13.854      32.678     159.379
  H      -15.235      25.571     157.901
  H      -13.922      33.956     158.140
  P      -16.865      32.514     162.225
  C      -19.115      31.200     162.158
  O      -17.704      31.147     162.294
  O      -17.718      33.527     163.122
  O      -15.449      32.386     162.691
  H      -17.154      34.237     163.483
  H      -19.517      30.211     162.227
  H      -19.366      31.622     161.207
  H      -19.526      31.807     162.937

 6  7  8  9  10  11  12  13  14  15  16  26  30  31  32  33  35 0
 6-311+G(2d,p)
 ****
 37  38 0
 6-311+G(2d,p)
 ****
 1  2  3  4  5  17  18  19  20  21  22  23  24  25 0
 3-21G
 ****
 27  28  29  34  36  39  40  41  42  43  44  45  46 0
 3-21G
 ****


