%nproc=1
%NoSave
%Mem=1900MB
#P OB98/GEN NMR

erre ene a

0 1
  C      180.184    -411.216     317.737
  O      179.565    -409.945     317.660
  H      181.164    -411.157     317.258
  H      179.577    -411.957     317.208
  H      180.316    -411.514     318.782
  P      178.185    -409.767     318.470
  C      176.644    -409.671     316.346
  O      177.050    -410.369     317.514
  C      175.410    -410.333     315.729
  O      174.809    -409.408     314.787
  C      175.712    -411.625     314.988
  O      174.625    -412.537     315.198
  C      175.750    -411.203     313.525
  O      175.481    -412.297     312.643
  C      174.710    -410.073     313.507
  N      174.936    -409.136     312.402
  C      174.339    -409.457     311.179
  O      173.685    -410.493     311.058
  N      174.531    -408.622     310.108
  C      175.310    -407.591     310.224
  N      175.484    -406.814     309.121
  C      176.006    -407.246     311.482
  C      175.767    -408.047     312.521
  O      177.963    -408.183     318.383
  O      178.215    -410.313     319.859
  H      174.535    -412.545     312.754
  H      178.177    -407.804     317.512
  H      176.664    -406.387     311.527
  H      176.230    -407.860     313.485
  H      173.699    -410.477     313.419
  H      176.746    -410.815     313.280
  H      176.644    -412.098     315.288
  H      174.667    -410.486     316.525
  H      175.004    -407.096     308.275
  H      177.455    -409.658     315.612
  H      176.105    -406.025     309.086
  H      176.418    -408.639     316.633
  P      174.720    -413.600     316.395
  C      175.892    -415.496     315.097
  O      175.991    -414.550     316.154
  O      173.449    -414.314     316.729
  O      175.196    -412.701     317.638
  H      174.733    -413.011     318.438
  H      176.797    -416.064     315.040
  H      175.735    -414.982     314.172
  H      175.069    -416.154     315.283

 6  7  8  9  10  11  12  13  14  15  16  26  30  31  32  33  35 0
 6-311+G(2d,p)
 ****
 37  38 0
 6-311+G(2d,p)
 ****
 1  2  3  4  5  17  18  19  20  21  22  23  24  25 0
 3-21G
 ****
 27  28  29  34  36  39  40  41  42  43  44  45  46 0
 3-21G
 ****


