%nproc=1
%NoSave
%Mem=1900MB
#P OB98/GEN NMR

erre ene a

0 1
  C      -40.629    -834.627      77.513
  O      -41.689    -833.986      76.821
  P      -41.382    -832.949      75.636
  C      -43.464    -833.158      74.133
  O      -42.823    -832.418      75.147
  C      -44.919    -832.722      73.999
  O      -45.704    -833.094      75.169
  C      -45.118    -831.211      73.894
  O      -44.617    -830.572      72.744
  C      -46.603    -831.081      74.168
  O      -47.383    -831.356      72.992
  C      -46.836    -832.191      75.243
  N      -46.981    -831.621      76.589
  C      -48.267    -831.174      76.908
  O      -49.235    -831.239      76.137
  N      -48.412    -830.612      78.153
  C      -47.414    -830.439      79.068
  O      -47.608    -829.892      80.147
  C      -46.074    -830.913      78.661
  C      -45.928    -831.483      77.451
  O      -40.521    -833.475      74.547
  O      -40.782    -831.675      76.403
  H      -47.398    -832.316      72.881
  H      -41.389    -831.275      77.059
  H      -49.328    -830.282      78.395
  H      -45.272    -830.787      79.370
  H      -44.963    -831.837      77.137
  H      -47.729    -832.784      75.005
  H      -46.881    -830.074      74.504
  H      -44.590    -830.753      74.750
  H      -45.375    -833.248      73.139
  H      -43.444    -834.227      74.413
  H      -42.935    -833.049      73.187
  P      -43.839    -829.175      72.785
  C      -43.157    -829.268      70.299
  O      -43.827    -828.549      71.313
  O      -42.544    -829.131      73.561
  O      -44.911    -828.218      73.526
  H      -44.451    -827.532      74.047
  H      -43.202    -828.686      69.349
  H      -43.644    -830.232      70.110
  H      -42.106    -829.413      70.542
  H      -41.033    -835.276      78.262
  H      -40.009    -833.889      77.978
  H      -40.046    -835.199      76.822

 3  4  5  6  7  8  9  10  11  12  13  23  28  29  30  31  32 0
 6-311+G(2d,p)
 ****
 33  34 0
 6-311+G(2d,p)
 ****
 1  2  14  15  16  17  18  19  20  21  22  24  25  26  27 0
 3-21G
 ****
 35  36  37  38  39  40  41  42  43  44  45 0
 3-21G
 ****


