%nproc=1
%NoSave
%Mem=1900MB
#P OB98/GEN NMR

erre ene a

0 1
  C      -17.821    -528.693    -887.820
  O      -17.760    -527.296    -888.130
  P      -17.305    -526.869    -889.610
  C      -19.619    -526.029    -890.460
  O      -18.574    -526.998    -890.570
  C      -20.348    -525.873    -891.800
  O      -19.453    -525.382    -892.840
  C      -20.957    -527.165    -892.330
  O      -22.213    -527.443    -891.750
  C      -21.124    -526.834    -893.810
  O      -22.321    -526.041    -893.990
  C      -19.872    -525.990    -894.090
  N      -17.130    -526.863    -898.270
  C      -18.172    -525.971    -898.050
  N      -18.532    -525.214    -899.100
  N      -18.808    -525.857    -896.920
  C      -18.330    -526.664    -895.950
  C      -17.307    -527.597    -896.030
  C      -16.629    -527.722    -897.300
  O      -15.705    -528.509    -897.560
  N      -17.120    -528.241    -894.840
  C      -18.005    -527.714    -894.030
  N      -18.783    -526.768    -894.650
  O      -16.385    -528.107    -890.070
  O      -16.570    -525.577    -889.670
  H      -22.210    -525.576    -894.840
  H      -15.731    -527.802    -890.720
  H      -16.693    -526.929    -899.150
  H      -18.124    -527.983    -892.980
  H      -20.078    -525.158    -894.790
  H      -21.238    -527.730    -894.420
  H      -18.059    -525.203    -900.000
  H      -20.234    -528.006    -892.220
  H      -19.275    -524.537    -898.950
  H      -21.153    -525.131    -891.650
  H      -19.207    -525.065    -890.150
  H      -20.302    -526.332    -889.670
  P      -22.341    -528.733    -890.800
  C      -23.447    -527.376    -888.880
  O      -22.362    -528.186    -889.300
  O      -20.897    -529.426    -890.940
  O      -23.444    -529.677    -891.170
  H      -20.978    -530.400    -890.860
  H      -23.373    -527.238    -887.800
  H      -24.411    -527.870    -889.110
  H      -23.397    -526.397    -889.380
  H      -18.137    -528.820    -886.806
  H      -16.853    -529.130    -887.949
  H      -18.519    -529.173    -888.474

 3  4  5  6  7  8  9  10  11  12  23  26  30  31 0
 6-311+G(2d,p)
 ****
 33  35  36  37  38 0
 6-311+G(2d,p)
 ****
 1  2  13  14  15  16  17  18  19  20  21  22  24  25 0
 3-21G
 ****
 27  28  29  32  34  39  40  41  42  43  44  45  46  47  48  49 0
 3-21G
 ****


