%nproc=1
%NoSave
%Mem=1900MB
#P OB98/GEN NMR

erre ene a

0 1
  C     -230.340    -707.836      71.779
  O     -229.773    -706.961      70.825
  H     -229.764    -708.765      71.784
  H     -231.375    -708.068      71.520
  H     -230.292    -707.391      72.779
  P     -230.511    -705.564      70.535
  C     -232.089    -706.503      68.705
  O     -231.973    -705.987      70.026
  C     -233.488    -706.243      68.154
  O     -233.525    -706.440      66.725
  C     -234.577    -707.161      68.703
  O     -234.956    -706.852      70.038
  C     -235.683    -706.882      67.702
  O     -236.289    -705.605      67.997
  C     -234.891    -706.830      66.376
  N     -234.895    -708.106      65.659
  C     -236.136    -708.555      65.181
  O     -237.164    -707.895      65.379
  N     -236.195    -709.769      64.535
  C     -235.123    -710.474      64.385
  N     -235.244    -711.687      63.777
  C     -233.789    -710.025      64.845
  C     -233.752    -708.842      65.474
  O     -229.774    -704.597      69.658
  O     -230.834    -704.980      71.991
  H     -236.700    -705.686      68.873
  H     -231.281    -704.100      71.867
  H     -232.925    -710.656      64.703
  H     -232.811    -708.460      65.855
  H     -235.288    -706.046      65.716
  H     -236.485    -707.633      67.722
  H     -234.286    -708.213      68.620
  H     -233.725    -705.186      68.339
  H     -236.178    -711.976      63.510
  H     -231.874    -707.578      68.735
  H     -234.526    -712.399      63.869
  H     -231.364    -706.017      68.045
  P     -234.752    -707.988      71.161
  C     -236.714    -709.352      70.120
  O     -235.365    -709.349      70.561
  O     -235.797    -707.559      72.288
  O     -233.357    -708.132      71.695
  H     -235.377    -707.009      72.975
  H     -236.967    -710.324      69.752
  H     -236.835    -708.632      69.338
  H     -237.357    -709.102      70.938

 6  7  8  9  10  11  12  13  14  15  16  26  30  31  32  33  35 0
 6-311+G(2d,p)
 ****
 37  38 0
 6-311+G(2d,p)
 ****
 1  2  3  4  5  17  18  19  20  21  22  23  24  25 0
 3-21G
 ****
 27  28  29  34  36  39  40  41  42  43  44  45  46 0
 3-21G
 ****


