%nproc=1
%NoSave
%Mem=1900MB
#P OB98/GEN NMR

erre ene a

0 1
  C       50.531      46.171      11.964
  O       50.956      47.134      12.908
  H       51.159      45.280      12.035
  H       49.498      45.893      12.188
  H       50.575      46.579      10.951
  P       52.389      47.808      12.656
  C       52.093      50.349      13.116
  O       52.453      49.078      13.638
  C       50.574      50.457      12.977
  O       49.959      50.027      14.221
  C       50.086      51.880      12.686
  O       48.997      51.816      11.764
  C       49.593      52.369      14.037
  O       48.617      53.396      13.916
  C       49.070      51.075      14.654
  N       46.138      52.158      18.690
  C       45.864      52.081      17.370
  N       46.705      51.780      16.358
  C       47.931      51.493      16.830
  C       48.359      51.529      18.145
  C       47.399      51.892      19.105
  N       47.677      52.008      20.448
  N       49.700      51.207      18.227
  C       50.071      50.980      16.982
  N       49.038      51.145      16.103
  O       52.207      48.465      11.204
  O       53.560      46.887      12.710
  H       48.445      53.764      14.807
  H       52.311      47.776      10.521
  H       44.838      52.298      17.088
  H       51.068      50.705      16.665
  H       48.054      50.830      14.318
  H       50.435      52.764      14.616
  H       50.870      52.521      12.278
  H       50.242      49.757      12.202
  H       52.559      50.475      12.134
  H       46.943      52.328      21.058
  H       48.625      51.873      20.768
  H       52.459      51.132      13.789
  P       49.342      52.074      10.218
  C       47.357      50.620       9.403
  O       48.001      51.885       9.356
  O       50.232      50.805       9.820
  O       50.077      53.352       9.976
  H       51.047      51.096       9.371
  H       46.484      50.641       8.785
  H       47.075      50.401      10.412
  H       48.027      49.865       9.048

 6  7  8  9  10  11  12  13  14  15  25  28  32  33  34  35 0
 6-311+G(2d,p)
 ****
 36  39  40 0
 6-311+G(2d,p)
 ****
 1  2  3  4  5  16  17  18  19  20  21  22  23  24 0
 3-21G
 ****
 26  27  29  30  31  37  38  41  42  43  44  45  46  47 0
 3-21G
 ****
 48 0
 3-21G
 ****


