%nproc=1
%NoSave
%Mem=1900MB
#P OB98/GEN NMR

erre ene a

0 1
  C      612.588     -30.867      81.193
  O      613.422     -31.233      82.273
  H      611.799     -30.211      81.568
  H      612.128     -31.758      80.761
  H      613.159     -30.333      80.430
  P      614.707     -32.130      81.924
  C      615.954     -30.206      80.710
  O      615.949     -31.115      81.802
  C      617.207     -29.334      80.740
  O      617.177     -28.428      79.595
  C      617.351     -28.473      82.002
  O      618.748     -28.378      82.319
  C      616.877     -27.105      81.538
  O      617.365     -26.048      82.360
  C      617.421     -27.101      80.110
  N      617.036     -25.401      75.390
  C      617.716     -26.492      75.900
  N      618.402     -27.245      75.015
  N      617.724     -26.811      77.166
  C      616.970     -25.987      77.934
  C      616.257     -24.876      77.555
  C      616.277     -24.516      76.150
  O      615.711     -23.552      75.646
  N      615.643     -24.292      78.634
  C      615.986     -25.049      79.662
  N      616.791     -26.088      79.285
  O      614.427     -32.568      80.411
  O      614.930     -33.304      82.816
  H      618.343     -26.114      82.388
  H      613.980     -33.435      80.386
  H      617.075     -25.190      74.408
  H      615.688     -24.885      80.689
  H      618.502     -26.915      80.073
  H      615.781     -27.063      81.541
  H      618.405     -27.089      74.021
  H      616.797     -28.849      82.871
  H      618.872     -28.074      75.360
  H      618.085     -29.979      80.604
  H      615.070     -29.565      80.779
  H      615.912     -30.770      79.773
  P      619.286     -29.176      83.601
  C      620.212     -31.438      82.711
  O      620.497     -30.111      83.129
  O      618.111     -30.233      83.880
  O      619.549     -28.318      84.793
  H      618.094     -30.464      84.829
  H      621.122     -31.926      82.430
  H      619.547     -31.413      81.873
  H      619.753     -31.974      83.515

 6  7  8  9  10  11  12  13  14  15  26  29  33  34 0
 6-311+G(2d,p)
 ****
 36  38  39  40  41 0
 6-311+G(2d,p)
 ****
 1  2  3  4  5  16  17  18  19  20  21  22  23  24  25 0
 3-21G
 ****
 27  28  30  31  32  35  37  42  43  44  45  46  47 0
 3-21G
 ****
 48  49 0
 3-21G
 ****


