%nproc=1
%NoSave
%Mem=1900MB
#P OB98/GEN NMR

erre ene a

0 1
  C      156.956    -179.535      25.919
  O      157.613    -178.663      26.818
  H      155.941    -179.713      26.280
  H      157.486    -180.488      25.869
  H      156.902    -179.088      24.919
  P      159.037    -178.077      26.371
  C      158.490    -175.672      27.205
  O      159.332    -176.813      27.322
  C      158.819    -174.666      28.311
  O      158.217    -175.139      29.558
  C      160.321    -174.488      28.572
  O      160.562    -173.114      28.910
  C      160.570    -175.350      29.797
  O      161.716    -174.975      30.549
  C      159.252    -175.145      30.558
  N      159.014    -176.192      31.557
  C      159.535    -175.992      32.835
  O      160.110    -174.968      33.206
  N      159.378    -177.043      33.704
  C      158.788    -178.243      33.428
  O      158.699    -179.155      34.248
  C      158.266    -178.397      32.061
  C      158.402    -177.384      31.205
  O      158.720    -177.407      24.953
  O      160.152    -179.070      26.298
  H      158.842    -178.057      24.231
  H      161.492    -174.148      31.030
  H      159.752    -176.913      34.635
  H      157.801    -179.339      31.803
  H      158.046    -177.471      30.176
  H      159.244    -174.166      31.053
  H      160.687    -176.402      29.499
  H      160.959    -174.777      27.728
  H      158.343    -173.708      28.070
  H      157.447    -175.981      27.296
  H      158.638    -175.213      26.219
  P      161.930    -172.453      28.389
  C      161.046    -170.712      26.631
  O      161.546    -170.959      27.946
  O      162.149    -173.237      27.007
  O      163.050    -172.572      29.372
  H      161.307    -173.439      26.552
  H      160.846    -169.667      26.516
  H      160.143    -171.267      26.483
  H      161.775    -171.017      25.909

 6  7  8  9  10  11  12  13  14  15  16  27  31  32  33  34  35 0
 6-311+G(2d,p)
 ****
 36  37 0
 6-311+G(2d,p)
 ****
 1  2  3  4  5  17  18  19  20  21  22  23  24  25 0
 3-21G
 ****
 26  28  29  30  38  39  40  41  42  43  44  45 0
 3-21G
 ****


