%nproc=1
%NoSave
%Mem=1900MB
#P OB98/GEN NMR

erre ene a

0 1
  C      -82.244     -93.903      -4.714
  O      -80.998     -93.232      -4.753
  P      -79.681     -94.087      -4.432
  C      -78.280     -93.172      -6.432
  O      -78.432     -93.276      -5.023
  C      -77.878     -91.742      -6.803
  O      -78.999     -90.847      -6.639
  C      -76.770     -91.175      -5.927
  O      -75.498     -91.662      -6.320
  C      -76.941     -89.678      -6.146
  O      -76.283     -89.254      -7.350
  C      -78.472     -89.550      -6.286
  N      -79.102     -89.017      -5.083
  C      -78.871     -87.670      -4.820
  O      -78.161     -86.961      -5.535
  N      -79.450     -87.173      -3.685
  C      -80.176     -87.886      -2.776
  O      -80.623     -87.396      -1.747
  C      -80.364     -89.312      -3.091
  C      -79.822     -89.805      -4.207
  O      -79.803     -95.357      -5.399
  O      -79.536     -94.490      -3.004
  H      -76.682     -89.768      -8.080
  H      -79.441     -96.148      -4.955
  H      -79.316     -86.194      -3.490
  H      -80.934     -89.909      -2.391
  H      -79.937     -90.856      -4.449
  H      -78.718     -88.887      -7.124
  H      -76.517     -89.090      -5.326
  H      -76.968     -91.408      -4.873
  H      -77.581     -91.729      -7.858
  H      -79.225     -93.427      -6.918
  H      -77.518     -93.883      -6.763
  P      -74.375     -91.772      -5.176
  C      -73.953     -94.300      -5.678
  O      -73.437     -92.989      -5.630
  O      -75.244     -92.344      -3.960
  O      -73.694     -90.473      -4.903
  H      -75.963     -92.923      -4.263
  H      -74.999     -94.309      -5.996
  H      -73.870     -94.759      -4.690
  H      -73.364     -94.886      -6.390
  H      -83.028     -93.213      -4.947
  H      -82.402     -94.305      -3.735
  H      -82.244     -94.698      -5.430

 3  4  5  6  7  8  9  10  11  12  13  23  28  29  30  31  32 0
 6-311+G(2d,p)
 ****
 33  34 0
 6-311+G(2d,p)
 ****
 1  2  14  15  16  17  18  19  20  21  22  24  25  26 0
 3-21G
 ****
 27  35  36  37  38  39  40  41  42  43  44  45 0
 3-21G
 ****


