%nproc=1
%NoSave
%Mem=1900MB
#P OB98/GEN NMR

erre ene a

0 1
  C       83.818     -30.971    -259.965
  O       84.635     -31.431    -261.024
  P       84.052     -31.500    -262.512
  C       84.646     -33.940    -263.056
  O       83.600     -33.013    -262.791
  C       84.067     -35.320    -263.363
  O       83.582     -35.942    -262.156
  C       82.880     -35.296    -264.317
  O       83.307     -35.099    -265.651
  C       82.253     -36.658    -264.041
  O       82.940     -37.688    -264.772
  C       82.495     -36.817    -262.533
  N       78.489     -38.837    -260.107
  C       79.402     -39.377    -260.943
  N       80.419     -38.762    -261.582
  C       80.426     -37.449    -261.302
  C       79.540     -36.750    -260.499
  C       78.543     -37.507    -259.860
  N       77.645     -36.979    -258.959
  N       79.858     -35.404    -260.487
  C       80.907     -35.296    -261.274
  N       81.325     -36.512    -261.737
  O       84.916     -30.895    -263.567
  O       82.656     -30.721    -262.409
  H       82.824     -37.497    -265.721
  H       82.672     -29.949    -263.006
  H       79.308     -40.445    -261.114
  H       81.407     -34.370    -261.525
  H       82.808     -37.836    -262.277
  H       81.200     -36.702    -264.331
  H       82.176     -34.510    -264.017
  H       84.874     -35.947    -263.766
  H       85.290     -33.995    -262.174
  H       77.069     -37.632    -258.453
  H       77.859     -36.077    -258.538
  H       85.240     -33.582    -263.903
  P       82.242     -35.151    -266.844
  C       83.495     -37.169    -267.809
  O       82.242     -36.651    -267.407
  O       82.376     -34.081    -267.878
  O       80.831     -35.054    -266.092
  H       80.189     -34.589    -266.661
  H       83.762     -36.768    -268.790
  H       83.421     -38.256    -267.876
  H       84.274     -36.912    -267.083
  H       84.373     -30.994    -259.050
  H       82.959     -31.603    -259.877
  H       83.504     -29.968    -260.166

 3  4  5  6  7  8  9  10  11  12  22  25  29  30  31  32 0
 6-311+G(2d,p)
 ****
 33  36  37 0
 6-311+G(2d,p)
 ****
 1  2  13  14  15  16  17  18  19  20  21  23  24  26 0
 3-21G
 ****
 27  28  34  35  38  39  40  41  42  43  44  45  46  47  48 0
 3-21G
 ****


