%nproc=1
%NoSave
%Mem=1900MB
#P OB98/GEN NMR

erre ene a

0 1
  C      -33.348     326.706     483.281
  O      -34.514     327.254     483.853
  H      -33.047     325.831     483.868
  H      -32.534     327.442     483.303
  H      -33.534     326.389     482.251
  P      -35.134     328.548     483.121
  C      -34.567     331.080     483.070
  O      -34.309     329.811     483.658
  C      -34.253     332.190     484.073
  O      -32.861     332.118     484.460
  C      -34.449     333.590     483.527
  O      -35.810     333.975     483.508
  C      -33.604     334.409     484.503
  O      -34.326     334.717     485.695
  C      -32.431     333.459     484.804
  N      -27.556     334.933     485.210
  C      -28.477     334.589     486.155
  N      -29.756     334.192     485.949
  C      -30.044     334.151     484.640
  C      -29.214     334.482     483.581
  C      -27.907     334.882     483.913
  N      -26.976     335.267     482.968
  N      -29.873     334.354     482.379
  C      -31.096     333.952     482.699
  N      -31.236     333.807     484.053
  O      -36.568     328.698     483.814
  O      -35.246     328.435     481.636
  H      -34.989     335.396     485.448
  H      -37.258     328.322     483.226
  H      -28.146     334.628     487.182
  H      -31.897     333.757     481.995
  H      -32.167     333.454     485.869
  H      -33.298     335.351     484.045
  H      -34.007     333.671     482.529
  H      -34.858     332.036     484.977
  H      -35.622     331.143     482.785
  H      -33.946     331.191     482.179
  H      -26.092     335.612     483.277
  H      -27.265     335.335     482.006
  P      -36.323     334.887     482.292
  C      -35.905     337.344     481.521
  O      -35.823     336.378     482.561
  O      -37.894     334.970     482.491
  O      -35.950     334.368     480.940
  H      -38.354     334.971     481.620
  H      -35.529     338.281     481.874
  H      -36.926     337.459     481.221
  H      -35.322     337.018     480.685

 6  7  8  9  10  11  12  13  14  15  25  28  32  33  34  35 0
 6-311+G(2d,p)
 ****
 36  37  40 0
 6-311+G(2d,p)
 ****
 1  2  3  4  5  16  17  18  19  20  21  22  23  24 0
 3-21G
 ****
 26  27  29  30  31  38  39 41  42  43  44  45  46  47  48 0
 3-21G
 ****


