%nproc=1
%NoSave
%Mem=1900MB
#P OB98/GEN NMR

erre ene a

0 1
  C      571.211     544.331     540.546
  O      572.358     543.509     540.678
  P      573.794     544.227     540.583
  C      575.509     544.652     538.656
  O      574.169     544.287     539.012
  C      575.676     544.693     537.144
  O      575.702     543.333     536.616
  C      574.585     545.471     536.411
  O      575.183     546.176     535.319
  C      573.689     544.400     535.857
  O      572.945     544.832     534.716
  C      574.710     543.274     535.576
  N      574.082     541.950     535.506
  C      573.954     541.368     534.245
  O      574.280     542.006     533.231
  N      573.406     540.118     534.127
  C      572.923     539.534     535.200
  N      572.404     538.283     535.038
  C      572.947     540.154     536.539
  C      573.545     541.330     536.606
  O      574.790     543.120     541.161
  O      573.894     545.519     541.320
  H      573.582     545.079     534.009
  H      575.541     543.532     541.619
  H      572.496     539.642     537.378
  H      573.635     541.870     537.549
  H      575.211     543.452     534.599
  H      572.968     544.059     536.616
  H      574.061     546.183     537.058
  H      576.666     545.129     536.915
  H      572.390     537.890     534.107
  H      576.185     543.897     539.060
  H      572.005     537.762     535.808
  H      575.749     545.603     539.108
  P      574.568     547.605     534.920
  C      572.344     548.396     533.890
  O      573.121     547.290     534.329
  O      575.393     547.934     533.569
  O      574.699     548.729     535.903
  H      575.158     548.820     533.247
  H      571.451     548.025     533.399
  H      572.929     549.004     533.171
  H      572.067     549.013     534.744
  H      570.330     543.730     540.628
  H      571.226     544.813     539.591
  H      571.211     545.071     541.319

 3  4  5  6  7  8  9  10  11  12  13  21  23  27  28  29  30  32 0
 6-311+G(2d,p)
 ****
 34  35 0
 6-311+G(2d,p)
 ****
 1  2  14  15  16  17  18  19  20  22  24  25  26 0
 3-21G
 ****
 31  33  36  37  38  39  40  41  42  43  44  45  46 0
 3-21G
 ****


