%nproc=1
%NoSave
%Mem=1900MB
#P OB98/GEN NMR

erre ene a

0 1
  C     1371.664    -337.863     818.382
  O     1370.405    -337.245     818.199
  H     1372.416    -337.125     818.639
  H     1371.586    -338.598     819.193
  H     1371.951    -338.383     817.462
  P     1370.305    -336.104     817.081
  C     1370.848    -334.257     818.815
  O     1369.946    -334.728     817.830
  C     1370.693    -332.747     818.993
  O     1371.185    -332.094     817.787
  C     1369.239    -332.283     819.214
  O     1369.150    -331.552     820.446
  C     1368.960    -331.302     818.077
  O     1368.223    -330.157     818.478
  C     1370.371    -330.948     817.569
  N     1368.545    -327.544     814.255
  C     1368.735    -327.466     815.583
  N     1369.324    -328.364     816.405
  C     1369.766    -329.434     815.696
  C     1369.671    -329.613     814.320
  C     1369.019    -328.630     813.582
  N     1368.782    -328.723     812.238
  N     1370.241    -330.837     813.963
  C     1370.633    -331.368     815.108
  N     1370.348    -330.566     816.172
  O     1368.960    -336.472     816.288
  O     1371.486    -336.026     816.154
  H     1368.649    -329.835     819.305
  H     1369.133    -336.462     815.336
  H     1368.340    -326.574     816.065
  H     1371.080    -332.341     815.222
  H     1370.798    -330.100     818.156
  H     1368.403    -331.839     817.279
  H     1368.509    -333.102     819.213
  H     1371.327    -332.414     819.813
  H     1371.873    -334.474     818.499
  H     1368.185    -328.017     811.816
  H     1369.029    -329.574     811.767
  H     1370.642    -334.780     819.767
  P     1368.530    -332.353     821.694
  C     1366.266    -331.124     821.363
  O     1367.297    -331.491     822.262
  O     1369.644    -332.159     822.850
  O     1368.245    -333.789     821.427
  H     1369.624    -332.892     823.469
  H     1365.523    -330.558     821.885
  H     1365.820    -332.006     820.952
  H     1366.676    -330.531     820.573

 6  7  8  9  10  11  12  13  14  15  25  28  32  33  34  35 0
 6-311+G(2d,p)
 ****
 36  39  40 0
 6-311+G(2d,p)
 ****
 1  2  3  4  5  16  17  18  19  20  21  22  23  24 0
 3-21G
 ****
 26  27  29  30  31  37  38  41  42  43  44  45  46  47  48 0
 3-21G
 ****


