%nproc=1
%NoSave
%Mem=1900MB
#P OB98/GEN NMR

erre ene a

0 1
  C     -335.517    -472.021     106.227
  O     -335.871    -470.640     106.155
  P     -337.338    -470.235     105.650
  C     -336.820    -468.446     103.875
  O     -337.255    -469.779     104.111
  C     -337.397    -467.860     102.577
  O     -337.148    -468.742     101.453
  C     -338.915    -467.597     102.622
  O     -339.153    -466.410     101.855
  C     -339.468    -468.816     101.917
  O     -340.801    -468.617     101.464
  C     -338.422    -469.010     100.823
  N     -338.455    -470.347     100.232
  C     -338.642    -470.420      98.847
  O     -338.863    -469.400      98.201
  N     -338.597    -471.659      98.254
  C     -338.531    -472.727      98.985
  N     -338.471    -473.932      98.356
  C     -338.521    -472.684     100.470
  C     -338.457    -471.473     101.008
  O     -338.093    -469.306     106.540
  O     -338.084    -471.657     105.552
  H     -341.125    -469.451     101.045
  H     -339.026    -471.544     105.791
  H     -338.543    -473.601     101.040
  H     -338.439    -471.343     102.082
  H     -338.544    -468.273     100.022
  H     -339.469    -469.672     102.600
  H     -339.300    -467.458     103.636
  H     -336.866    -466.918     102.374
  H     -338.503    -473.945      97.345
  H     -335.726    -468.433     103.818
  H     -338.369    -474.806      98.861
  H     -337.090    -467.823     104.741
  P     -339.394    -465.025     102.630
  C     -341.970    -465.397     102.520
  O     -340.838    -465.082     103.316
  O     -339.656    -464.010     101.401
  O     -338.262    -464.527     103.461
  H     -339.427    -463.106     101.683
  H     -342.797    -465.677     103.181
  H     -341.764    -466.247     101.854
  H     -342.259    -464.530     101.933
  H     -334.511    -472.113     106.580
  H     -335.595    -472.460     105.255
  H     -336.179    -472.524     106.900

 3  4  5  6  7  8  9  10  11  12  13  23  27  28  29  30  32 0
 6-311+G(2d,p)
 ****
 34  35 0
 6-311+G(2d,p)
 ****
 1  2  14  15  16  17  18  19  20  21  22  24  25  26 0
 3-21G
 ****
 31  33  36  37  38  39  40  41  42  43  44  45  46 0
 3-21G
 ****


