%nproc=1
%NoSave
%Mem=1900MB
#P OB98/GEN NMR

erre ene a

0 1
  C     -449.321    -115.408     -49.766
  O     -449.196    -116.543     -50.606
  H     -449.145    -115.712     -48.735
  H     -450.336    -115.003     -49.849
  H     -448.587    -114.643     -50.039
  P     -449.086    -116.272     -52.186
  C     -446.964    -117.591     -52.899
  O     -448.383    -117.569     -52.822
  C     -446.449    -119.022     -52.729
  O     -446.597    -119.453     -51.369
  C     -447.160    -120.051     -53.599
  O     -446.634    -120.091     -54.916
  C     -446.836    -121.331     -52.838
  O     -445.474    -121.732     -53.130
  C     -446.944    -120.869     -51.374
  N     -449.595    -123.047     -47.636
  C     -448.258    -123.163     -47.953
  N     -447.517    -123.978     -47.167
  N     -447.687    -122.534     -48.957
  C     -448.557    -121.772     -49.672
  C     -449.908    -121.586     -49.456
  C     -450.514    -122.270     -48.338
  O     -451.697    -122.199     -48.007
  N     -450.453    -120.741     -50.389
  C     -449.438    -120.440     -51.175
  N     -448.262    -121.040     -50.784
  O     -447.953    -115.145     -52.276
  O     -450.355    -115.823     -52.843
  H     -444.901    -120.990     -52.878
  H     -448.383    -114.276     -52.419
  H     -449.991    -123.561     -46.861
  H     -449.498    -119.781     -52.030
  H     -446.227    -121.388     -50.719
  H     -447.483    -122.167     -53.119
  H     -447.900    -124.508     -46.392
  H     -448.256    -119.896     -53.599
  H     -446.531    -124.076     -47.382
  H     -445.367    -119.012     -52.951
  H     -446.552    -116.960     -52.105
  H     -446.655    -117.195     -53.871
  P     -447.662    -120.179     -56.146
  C     -445.643    -120.433     -57.758
  O     -446.900    -120.944     -57.341
  O     -447.730    -118.662     -56.658
  O     -449.017    -120.704     -55.809
  H     -448.611    -118.282     -56.468
  H     -445.258    -121.037     -58.553
  H     -444.960    -120.450     -56.934
  H     -445.763    -119.427     -58.101

 6  7  8  9  10  11  12  13  14  15  26  29  33  34 0
 6-311+G(2d,p)
 ****
 36  38  39  40  41 0
 6-311+G(2d,p)
 ****
 1  2  3  4  5  16  17  18  19  20  21  22  23  24  25 0
 3-21G
 ****
 27  28  30  31  32  35  37  42  43  44  45  46  47 0
 3-21G
 ****
 48  49 0
 3-21G
 ****


