%nproc=1
%NoSave
%Mem=1900MB
#P OB98/GEN NMR

erre ene a

0 1
  C     -221.716     304.899    -349.025
  O     -221.400     303.570    -348.648
  P     -222.415     302.372    -348.975
  C     -224.720     301.642    -348.065
  O     -223.690     302.620    -348.022
  C     -225.870     302.017    -347.134
  O     -226.201     303.414    -347.275
  C     -227.163     301.259    -347.404
  O     -227.085     299.943    -346.878
  C     -228.177     302.155    -346.712
  O     -228.233     301.899    -345.296
  C     -227.609     303.566    -346.988
  N     -228.314     304.249    -348.067
  C     -228.767     305.542    -347.776
  O     -228.601     306.022    -346.650
  N     -229.459     306.232    -348.744
  C     -229.682     305.677    -349.903
  N     -230.366     306.407    -350.814
  C     -229.239     304.305    -350.229
  C     -228.572     303.653    -349.279
  O     -221.828     301.004    -348.914
  O     -222.983     302.755    -350.423
  H     -228.568     300.982    -345.203
  H     -222.312     302.593    -351.131
  H     -229.459     303.874    -351.200
  H     -228.217     302.643    -349.440
  H     -227.670     304.189    -346.089
  H     -229.195     302.011    -347.105
  H     -227.362     301.232    -348.481
  H     -225.539     301.849    -346.096
  H     -230.675     307.330    -350.533
  H     -224.303     300.681    -347.748
  H     -230.632     306.056    -351.724
  H     -225.077     301.539    -349.100
  P     -228.019     298.788    -347.469
  C     -230.557     298.434    -347.527
  O     -229.458     298.919    -346.784
  O     -227.428     297.420    -347.471
  O     -228.298     299.277    -348.979
  H     -228.204     298.513    -349.584
  H     -231.393     298.267    -346.841
  H     -230.311     297.492    -348.020
  H     -230.851     299.176    -348.272
  H     -220.924     305.553    -348.724
  H     -222.626     305.198    -348.548
  H     -221.837     304.949    -350.087

 3  4  5  6  7  8  9  10  11  12  13  23  27  28  29  30  32 0
 6-311+G(2d,p)
 ****
 34  35 0
 6-311+G(2d,p)
 ****
 1  2  14  15  16  17  18  19  20  21  22  24  25  26 0
 3-21G
 ****
 31  33  36  37  38  39  40  41  42  43  44  45  46 0
 3-21G
 ****


