%nproc=1
%NoSave
%Mem=1900MB
#P OB98/GEN NMR

erre ene a

0 1
  C      374.117     -20.309     -68.403
  O      375.249     -20.746     -67.677
  H      373.297     -20.071     -67.717
  H      374.382     -19.403     -68.957
  H      373.800     -21.079     -69.111
  P      375.059     -22.050     -66.760
  C      374.591     -24.549     -67.314
  O      374.567     -23.202     -67.765
  C      373.484     -25.335     -68.011
  O      372.193     -24.782     -67.666
  C      373.563     -25.289     -69.533
  O      374.485     -26.229     -70.059
  C      372.135     -25.651     -69.900
  O      371.936     -27.068     -69.742
  C      371.336     -24.880     -68.837
  N      367.570     -22.010     -70.785
  C      367.618     -23.311     -70.424
  N      368.652     -23.995     -69.894
  C      369.717     -23.195     -69.734
  C      369.816     -21.848     -70.048
  C      368.673     -21.251     -70.604
  N      368.628     -19.931     -71.001
  N      371.079     -21.372     -69.758
  C      371.724     -22.409     -69.263
  N      370.954     -23.543     -69.256
  O      373.743     -21.729     -65.908
  O      376.227     -22.427     -65.912
  H      372.220     -27.296     -68.837
  H      373.659     -22.351     -65.162
  H      366.706     -23.880     -70.587
  H      372.745     -22.394     -68.906
  H      370.421     -25.402     -68.538
  H      371.890     -25.405     -70.936
  H      373.778     -24.275     -69.893
  H      373.514     -26.368     -67.645
  H      374.428     -24.567     -66.231
  H      367.819     -19.636     -71.524
  H      369.486     -19.399     -71.010
  H      375.567     -24.990     -67.540
  P      374.922     -26.058     -71.596
  C      376.176     -24.223     -72.937
  O      375.479     -24.561     -71.744
  O      373.517     -26.008     -72.362
  O      375.810     -27.138     -72.114
  H      373.594     -26.397     -73.253
  H      376.485     -23.200     -72.892
  H      375.531     -24.364     -73.779
  H      377.036     -24.851     -73.037

 6  7  8  9  10  11  12  13  14  15  25  28  32  33  34  35 0
 6-311+G(2d,p)
 ****
 36  39  40 0
 6-311+G(2d,p)
 ****
 1  2  3  4  5  16  17  18  19  20  21  22  23  24 0
 3-21G
 ****
 26  27  29  30  31  37  38  41  42  43  44  45  46  47 0
 3-21G
 ****
 48 0
 3-21G
 ****


