%nproc=1
%NoSave
%Mem=1900MB
#P OB98/GEN NMR

erre ene a

0 1
  C      573.304    -376.107     -95.226
  O      573.660    -374.759     -95.467
  H      574.135    -376.749     -95.529
  H      572.418    -376.388     -95.794
  H      573.122    -376.260     -94.154
  P      572.515    -373.643     -95.343
  C      570.298    -373.144     -96.578
  O      571.479    -373.947     -96.538
  C      570.204    -372.397     -97.912
  O      570.041    -373.331     -98.999
  C      568.998    -371.468     -98.008
  O      569.073    -370.330     -97.164
  C      568.846    -371.276     -99.510
  O      569.661    -370.233    -100.036
  C      569.341    -372.644    -100.056
  N      568.240    -373.449    -100.581
  C      568.052    -373.388    -101.968
  O      568.743    -372.676    -102.714
  N      567.022    -374.125    -102.462
  C      566.134    -374.868    -101.727
  O      565.206    -375.475    -102.229
  C      566.375    -374.879    -100.268
  C      567.398    -374.185     -99.779
  O      572.992    -372.217     -95.307
  O      571.697    -374.084     -94.035
  H      569.374    -370.082    -100.955
  H      571.135    -373.336     -93.694
  H      566.873    -374.097    -103.461
  H      565.690    -375.459     -99.655
  H      567.589    -374.172     -98.703
  H      570.061    -372.494    -100.869
  H      567.806    -371.048     -99.782
  H      568.112    -372.022     -97.679
  H      571.136    -371.847     -98.070
  H      570.360    -372.409     -95.761
  H      569.417    -373.779     -96.434
  P      568.014    -369.144     -97.195
  C      567.555    -367.027     -98.646
  O      568.368    -368.178     -98.443
  O      567.660    -368.519     -95.887
  O      566.695    -369.900     -97.743
  H      565.908    -369.493     -97.315
  H      567.906    -366.489     -99.501
  H      567.606    -366.397     -97.782
  H      566.541    -367.330     -98.807

 6  7  8  9  10  11  12  13  14  15  16  26  31  32  33  34  35 0
 6-311+G(2d,p)
 ****
 36  37 0
 6-311+G(2d,p)
 ****
 1  2  3  4  5  17  18  19  20  21  22  23  24  25 0
 3-21G
 ****
 27  28  29  30  38  39  40  41  42  43  44  45 0
 3-21G
 ****


