%nproc=1
%NoSave
%Mem=1900MB
#P OB98/GEN NMR

erre ene a

0 1
  C     -408.725     242.644    -706.561
  O     -407.514     242.598    -705.801
  P     -407.170     241.225    -705.028
  C     -405.981     242.102    -702.869
  O     -405.849     241.467    -704.131
  C     -404.635     242.179    -702.161
  O     -403.932     240.901    -702.180
  C     -403.655     243.173    -702.794
  O     -403.926     244.495    -702.356
  C     -402.339     242.677    -702.235
  O     -402.166     243.155    -700.889
  C     -402.511     241.154    -702.234
  N     -398.264     239.251    -704.384
  C     -398.495     239.869    -703.190
  N     -399.648     240.361    -702.709
  C     -400.653     240.145    -703.564
  C     -400.571     239.538    -704.814
  C     -399.321     239.082    -705.212
  N     -399.116     238.430    -706.424
  N     -401.815     239.517    -705.410
  C     -402.633     240.098    -704.536
  N     -401.966     240.504    -703.419
  O     -406.650     240.269    -706.212
  O     -408.326     240.623    -704.305
  H     -402.049     244.122    -700.929
  H     -406.913     239.359    -706.026
  H     -397.600     239.986    -702.540
  H     -403.692     240.238    -704.681
  H     -402.061     240.690    -701.356
  H     -401.476     243.033    -702.801
  H     -403.670     243.086    -703.885
  H     -404.820     242.450    -701.100
  H     -406.704     241.552    -702.249
  H     -398.160     238.112    -706.626
  H     -399.890     238.290    -707.044
  H     -406.403     243.100    -703.013
  P     -403.313     245.690    -703.228
  C     -402.816     247.132    -701.114
  O     -403.498     247.021    -702.351
  O     -404.390     245.865    -704.418
  O     -401.937     245.455    -703.766
  H     -403.945     246.179    -705.230
  H     -402.807     248.187    -700.808
  H     -401.777     246.776    -701.208
  H     -403.326     246.540    -700.355
  H     -408.824     243.607    -707.016
  H     -409.559     242.468    -705.914
  H     -408.698     241.891    -707.321

 3  4  5  6  7  8  9  10  11  12  22  25  29  30  31  32 0
 6-311+G(2d,p)
 ****
 33  36  37 0
 6-311+G(2d,p)
 ****
 1  2  13  14  15  16  17  18  19  20  21  23  24  26 0
 3-21G
 ****
 27  28  34  35  38  39  40  41  42  43  44  45  46  47  48 0
 3-21G
 ****


