%nproc=1
%NoSave
%Mem=1900MB
#P OB98/GEN NMR

erre ene a

0 1
  C        7.985    -208.376    -158.160
  O        8.797    -208.370    -159.319
  H        7.174    -207.658    -158.296
  H        8.576    -208.083    -157.288
  H        7.557    -209.370    -158.003
  P       10.031    -209.395    -159.331
  C        9.656    -210.666    -161.578
  O       10.370    -209.657    -160.879
  C       10.035    -210.649    -163.064
  O        9.448    -209.463    -163.681
  C       11.552    -210.580    -163.312
  O       11.841    -211.247    -164.556
  C       11.769    -209.086    -163.487
  O       13.015    -208.835    -164.094
  C       10.529    -208.737    -164.303
  N       10.469    -204.561    -167.233
  C       10.720    -205.859    -167.515
  N       10.707    -206.918    -166.679
  C       10.368    -206.531    -165.435
  C       10.090    -205.248    -164.995
  C       10.158    -204.227    -165.955
  N        9.928    -202.900    -165.670
  N        9.812    -205.250    -163.638
  C        9.915    -206.510    -163.272
  N       10.248    -207.320    -164.324
  O        9.369    -210.771    -158.851
  O       11.200    -209.010    -158.489
  H       13.095    -207.894    -164.355
  H        9.462    -210.863    -157.883
  H       10.964    -206.079    -168.553
  H        9.772    -206.893    -162.270
  H       10.608    -209.075    -165.345
  H       11.765    -208.573    -162.521
  H       12.143    -211.026    -162.510
  H        9.588    -211.519    -163.562
  H        8.584    -210.479    -161.465
  H        9.900    -211.644    -161.155
  H       10.024    -202.228    -166.414
  H        9.727    -202.629    -164.719
  P       12.216    -212.809    -164.535
  C       10.065    -214.285    -164.527
  O       11.091    -213.669    -165.290
  O       11.961    -213.191    -162.994
  O       13.625    -213.136    -164.917
  H       12.708    -213.724    -162.661
  H        9.404    -214.815    -165.180
  H        9.517    -213.535    -163.996
  H       10.501    -214.969    -163.830

 6  7  8  9  10  11  12  13  14  15  25  28  32  33  34  35 0
 6-311+G(2d,p)
 ****
 36  37  40 0
 6-311+G(2d,p)
 ****
 1  2  3  4  5  16  17  18  19  20  21  22  23  24 0
 3-21G
 ****
 26  27  29  30  31  38  39 41  42  43  44  45  46  47  48 0
 3-21G
 ****


