%nproc=1
%NoSave
%Mem=1900MB
#P OB98/GEN NMR

erre ene a

0 1
  C      -43.781      86.960     -44.145
  O      -42.986      85.913     -44.707
  P      -43.203      85.623     -46.271
  C      -41.146      84.924     -47.682
  O      -42.118      84.529     -46.726
  C      -39.995      85.693     -47.024
  O      -39.266      84.846     -46.089
  C      -38.968      86.239     -48.023
  O      -38.495      87.487     -47.497
  C      -37.850      85.216     -47.949
  O      -36.627      85.737     -48.462
  C      -37.868      84.919     -46.452
  N      -35.887      82.296     -42.621
  C      -36.430      83.565     -42.644
  N      -36.501      84.212     -41.461
  N      -36.867      84.148     -43.729
  C      -36.768      83.365     -44.832
  C      -36.265      82.090     -44.935
  C      -35.755      81.470     -43.731
  O      -35.270      80.348     -43.656
  N      -36.363      81.612     -46.222
  C      -36.864      82.634     -46.897
  N      -37.177      83.695     -46.094
  O      -42.700      86.975     -46.964
  O      -44.617      85.307     -46.631
  H      -36.426      86.560     -47.967
  H      -43.462      87.531     -47.208
  H      -35.550      81.902     -41.760
  H      -37.043      82.646     -47.959
  H      -37.401      85.719     -45.863
  H      -38.116      84.324     -48.529
  H      -36.229      83.802     -40.579
  H      -39.351      86.378     -49.038
  H      -36.932      85.128     -41.442
  H      -40.423      86.522     -46.447
  H      -41.607      85.556     -48.444
  H      -40.779      84.035     -48.206
  P      -38.570      88.775     -48.444
  C      -39.806      90.698     -47.233
  O      -38.571      90.065     -47.497
  O      -40.070      88.723     -49.006
  O      -37.580      88.785     -49.563
  H      -40.077      88.998     -49.942
  H      -39.740      91.213     -46.272
  H      -40.631      89.981     -47.192
  H      -40.010      91.435     -48.015
  H      -43.553      87.062     -43.105
  H      -44.818      86.722     -44.261
  H      -43.568      87.879     -44.649

 3  4  5  6  7  8  9  10  11  12  23  26  30  31 0
 6-311+G(2d,p)
 ****
 33  35  36  37  38 0
 6-311+G(2d,p)
 ****
 1  2  13  14  15  16  17  18  19  20  21  22  24  25 0
 3-21G
 ****
 27  28  29  32  34  39  40  41  42  43  44  45  46  47  48  49 0
 3-21G
 ****


