%nproc=1
%NoSave
%Mem=1900MB
#P OB98/GEN NMR

erre ene a

0 1
  C      718.117     -71.123     497.432
  O      718.073     -69.719     497.597
  P      717.177     -68.814     496.614
  C      719.131     -68.128     495.087
  O      717.881     -68.806     495.169
  C      719.200     -67.292     493.809
  O      718.967     -68.119     492.651
  C      718.151     -66.181     493.723
  O      718.445     -65.100     494.592
  C      718.206     -65.854     492.227
  O      719.307     -64.992     491.940
  C      718.435     -67.256     491.613
  N      717.221     -67.798     491.033
  C      716.701     -67.103     489.929
  O      717.211     -66.041     489.563
  N      715.608     -67.622     489.281
  C      715.006     -68.677     489.766
  N      713.956     -69.175     489.056
  C      715.429     -69.337     491.013
  C      716.545     -68.864     491.587
  O      716.814     -67.468     497.152
  O      715.873     -69.701     496.365
  H      715.080     -69.151     496.517
  H      719.274     -64.261     492.585
  H      714.856     -70.169     491.409
  H      716.948     -69.311     492.485
  H      719.211     -67.188     490.848
  H      717.291     -65.348     491.903
  H      717.172     -66.587     493.973
  H      720.209     -66.864     493.734
  H      713.717     -68.712     488.191
  H      719.938     -68.859     495.098
  H      713.645     -70.134     489.147
  H      719.250     -67.476     495.971
  P      717.387     -64.782     495.748
  C      715.676     -63.725     494.111
  O      715.937     -64.746     495.071
  O      717.686     -63.252     496.114
  O      717.514     -65.676     496.953
  H      717.572     -63.125     497.077
  H      714.825     -64.027     493.496
  H      716.533     -63.577     493.447
  H      715.442     -62.792     494.631
  H      718.760     -71.549     498.173
  H      718.492     -71.356     496.457
  H      717.132     -71.526     497.541

 3  4  5  6  7  8  9  10  11  12  13  24  27  28  29  30  32 0
 6-311+G(2d,p)
 ****
 34  35 0
 6-311+G(2d,p)
 ****
 1  2  14  15  16  17  18  19  20  21  22  23  25  26 0
 3-21G
 ****
 31  33  36  37  38  39  40  41  42  43  44  45  46 0
 3-21G
 ****


