%nproc=1
%NoSave
%Mem=1900MB
#P OB98/GEN NMR

erre ene a

0 1
  C      -56.925     842.811    -345.099
  O      -57.533     843.787    -344.261
  P      -56.629     845.020    -343.779
  C      -55.871     845.887    -341.468
  O      -56.327     844.770    -342.214
  C      -56.256     845.746    -339.995
  O      -57.711     845.541    -339.917
  C      -55.596     844.570    -339.272
  O      -55.157     844.991    -337.959
  C      -56.737     843.572    -339.071
  O      -56.508     842.711    -337.959
  C      -57.924     844.536    -338.902
  N      -61.288     841.443    -336.733
  C      -60.154     842.053    -336.193
  N      -59.864     841.750    -334.909
  N      -59.394     842.884    -336.857
  C      -59.831     843.120    -338.125
  C      -60.918     842.594    -338.755
  C      -61.727     841.634    -338.038
  O      -62.679     841.000    -338.478
  N      -61.045     843.098    -340.040
  C      -60.021     843.924    -340.172
  N      -59.231     843.938    -339.053
  O      -57.679     846.236    -343.768
  O      -55.449     845.313    -344.631
  H      -55.725     842.175    -338.186
  H      -57.329     846.964    -344.340
  H      -61.834     840.792    -336.191
  H      -59.799     844.513    -341.068
  H      -57.884     845.023    -337.926
  H      -56.845     842.966    -339.983
  H      -60.428     841.134    -334.324
  H      -54.745     844.117    -339.815
  H      -59.063     842.194    -334.482
  H      -56.052     846.686    -339.484
  H      -56.312     846.806    -341.880
  H      -54.772     845.961    -341.549
  P      -53.928     844.188    -337.343
  C      -53.878     842.680    -335.220
  O      -54.552     843.059    -336.384
  O      -53.284     845.239    -336.298
  O      -52.932     843.721    -338.360
  H      -52.343     845.041    -336.151
  H      -53.058     843.348    -334.976
  H      -53.504     841.658    -335.338
  H      -54.587     842.689    -334.381
  H      -57.640     842.053    -345.340
  H      -56.095     842.369    -344.588
  H      -56.582     843.277    -345.999

 3  4  5  6  7  8  9  10  11  12  23  26  30  31  33  0
 6-311+G(2d,p)
 ****
 35  36  37  38 0
 6-311+G(2d,p)
 ****
 1  2  13  14  15  16  17  18  19  20  21  22  24  25  27  28  29 0
 3-21G
 ****
 32  34  39  40  41  42  43  44  45  46  47  48  49 0
 3-21G
 ****


