%nproc=1
%NoSave
%Mem=1900MB
#P OB98/GEN NMR

erre ene a

0 1
  C      -16.434     -42.679     -28.350
  O      -16.717     -43.787     -29.179
  H      -15.410     -42.769     -27.979
  H      -17.117     -42.663     -27.496
  H      -16.524     -41.747     -28.916
  P      -18.168     -43.823     -29.864
  C      -19.313     -42.490     -31.780
  O      -18.217     -42.581     -30.878
  C      -19.585     -41.026     -32.116
  O      -20.016     -40.331     -30.924
  C      -18.364     -40.263     -32.618
  O      -18.098     -40.527     -33.984
  C      -18.785     -38.824     -32.348
  O      -19.610     -38.310     -33.402
  C      -19.604     -38.953     -31.058
  N      -18.312     -34.962     -28.164
  C      -19.134     -35.076     -29.229
  N      -19.441     -36.185     -29.936
  C      -18.804     -37.256     -29.431
  C      -17.933     -37.291     -28.357
  C      -17.691     -36.073     -27.703
  N      -16.827     -35.949     -26.642
  N      -17.445     -38.570     -28.172
  C      -18.019     -39.294     -29.111
  N      -18.851     -38.543     -29.890
  O      -19.137     -43.377     -28.670
  O      -18.564     -45.138     -30.446
  H      -19.683     -37.347     -33.254
  H      -19.495     -44.168     -28.226
  H      -19.605     -34.155     -29.561
  H      -17.858     -40.354     -29.269
  H      -20.516     -38.345     -31.084
  H      -17.919     -38.166     -32.264
  H      -17.490     -40.497     -31.999
  H      -20.400     -40.982     -32.850
  H      -20.204     -42.923     -31.312
  H      -19.075     -43.056     -32.686
  H      -16.684     -35.038     -26.236
  H      -16.278     -36.751     -26.360
  P      -16.589     -40.408     -34.505
  C      -14.488     -41.899     -34.151
  O      -15.683     -41.372     -33.597
  O      -16.157     -38.938     -34.046
  O      -16.420     -40.606     -35.974
  H      -16.212     -38.317     -34.796
  H      -14.001     -42.518     -33.426
  H      -13.838     -41.095     -34.428
  H      -14.723     -42.482     -35.017

 6  7  8  9  10  11  12  13  14  15  25  28  32  33  34  35 0
 6-311+G(2d,p)
 ****
 36  37  40 0
 6-311+G(2d,p)
 ****
 1  2  3  4  5  16  17  18  19  20  21  22  23  24 0
 3-21G
 ****
 26  27  29  30  31  38  39 41  42  43  44  45  46  47  48 0
 3-21G
 ****


