%nproc=1
%NoSave
%Mem=1900MB
#P OB98/GEN NMR

erre ene a

0 1
  C      192.734     307.804     -23.875
  O      193.409     308.750     -23.074
  H      193.246     307.726     -24.839
  H      191.708     308.135     -24.055
  H      192.726     306.817     -23.403
  P      193.045     308.854     -21.519
  C      191.622     310.955     -22.009
  O      191.653     309.649     -21.445
  C      190.756     311.879     -21.151
  O      189.354     311.597     -21.448
  C      190.962     311.681     -19.635
  O      190.802     312.946     -18.983
  C      189.801     310.768     -19.289
  O      189.502     310.794     -17.916
  C      188.706     311.333     -20.191
  N      187.588     310.403     -20.325
  C      186.325     310.959     -20.484
  O      186.110     312.171     -20.505
  N      185.283     310.076     -20.542
  C      185.370     308.727     -20.353
  O      184.394     307.989     -20.337
  C      186.726     308.200     -20.134
  C      187.756     309.048     -20.136
  O      194.118     309.395     -20.631
  O      192.605     307.370     -21.112
  H      190.214     310.358     -17.411
  H      192.681     307.247     -20.147
  H      184.360     310.464     -20.669
  H      186.828     307.135     -19.963
  H      188.767     308.696     -19.961
  H      188.334     312.289     -19.803
  H      190.039     309.734     -19.561
  H      191.933     311.251     -19.384
  H      190.944     312.918     -21.442
  H      191.203     310.882     -23.018
  H      192.644     311.346     -22.074
  P      192.054     313.748     -18.373
  C      191.404     313.710     -15.889
  O      192.345     313.275     -16.863
  O      191.967     315.231     -18.537
  O      193.313     313.184     -19.184
  H      193.874     313.934     -19.465
  H      191.691     313.342     -14.926
  H      190.433     313.336     -16.139
  H      191.380     314.780     -15.869

 6  7  8  9  10  11  12  13  14  15  16  26  31  32  33  34  35 0
 6-311+G(2d,p)
 ****
 36  37 0
 6-311+G(2d,p)
 ****
 1  2  3  4  5  17  18  19  20  21  22  23  24  25 0
 3-21G
 ****
 27  28  29  30  38  39  40  41  42  43  44  45 0
 3-21G
 ****


