%nproc=1
%NoSave
%Mem=1900MB
#P OB98/GEN NMR

erre ene a

0 1
  C       -3.381     509.964     391.848
  O       -3.089     510.487     393.128
  P       -1.944     511.617     393.228
  C        0.264     510.957     394.468
  O       -0.540     510.862     393.296
  C        0.024     509.752     395.364
  O        0.282     508.515     394.635
  C        0.950     509.692     396.577
  O        0.502     510.560     397.600
  C        0.875     508.214     396.959
  O       -0.292     507.948     397.758
  C        0.756     507.534     395.574
  N        2.012     506.930     395.148
  C        2.561     505.972     396.009
  O        2.031     505.656     397.074
  N        3.733     505.409     395.605
  C        4.439     505.732     394.491
  O        5.534     505.244     394.196
  C        3.836     506.793     393.636
  C        2.682     507.323     393.997
  O       -2.127     512.215     394.705
  O       -2.035     512.681     392.186
  H       -0.228     507.000     398.032
  H       -1.933     513.172     394.706
  H        4.125     504.702     396.199
  H        4.377     507.064     392.733
  H        2.217     508.100     393.391
  H       -0.019     506.745     395.610
  H        1.744     507.902     397.551
  H        1.976     509.930     396.288
  H       -1.037     509.746     395.674
  H       -0.014     511.890     395.010
  H        1.305     511.031     394.177
  P        1.514     510.857     398.822
  C        0.801     509.329     400.832
  O        1.563     509.478     399.652
  O        0.634     511.854     399.704
  O        2.830     511.410     398.365
  H       -0.316     511.677     399.650
  H       -0.151     509.867     400.758
  H        1.365     509.733     401.679
  H        0.613     508.273     401.000
  H       -4.154     509.229     391.931
  H       -2.502     509.512     391.438
  H       -3.708     510.755     391.206

 3  4  5  6  7  8  9  10  11  12  13  23  28  29  30  31  32 0
 6-311+G(2d,p)
 ****
 33  34 0
 6-311+G(2d,p)
 ****
 1  2  14  15  16  17  18  19  20  21  22  24  25  26 0
 3-21G
 ****
 27  35  36  37  38  39  40  41  42  43  44  45 0
 3-21G
 ****


