%nproc=1
%NoSave
%Mem=1900MB
#P OB98/GEN NMR

erre ene a

0 1
  C      427.207      45.011     811.873
  O      428.149      44.146     812.511
  P      427.979      42.574     812.285
  C      426.352      42.258     814.280
  O      426.543      42.179     812.881
  C      425.846      40.934     814.832
  O      424.503      40.645     814.340
  C      426.684      39.724     814.421
  O      427.835      39.564     815.233
  C      425.697      38.580     814.678
  O      425.666      38.259     816.079
  C      424.365      39.210     814.240
  N      421.704      35.933     811.411
  C      421.718      36.139     812.796
  N      420.948      35.282     813.516
  N      422.403      37.061     813.405
  C      423.131      37.829     812.541
  C      423.206      37.748     811.169
  C      422.440      36.704     810.519
  O      422.434      36.458     809.298
  N      424.042      38.706     810.648
  C      424.478      39.371     811.699
  N      423.975      38.842     812.885
  O      429.008      41.926     813.329
  O      428.250      42.105     810.882
  H      425.647      39.110     816.572
  H      429.191      40.993     813.095
  H      421.163      35.212     810.996
  H      425.144      40.218     811.673
  H      423.540      38.915     814.904
  H      425.947      37.665     814.148
  H      420.434      34.504     813.118
  H      426.932      39.750     813.349
  H      420.975      35.349     814.528
  H      425.784      41.004     815.929
  H      425.626      43.053     814.499
  H      427.299      42.533     814.763
  P      428.962      38.540     814.693
  C      427.945      36.653     816.153
  O      428.338      37.088     814.873
  O      430.090      38.622     815.835
  O      429.494      38.893     813.335
  H      430.953      38.407     815.457
  H      427.305      35.776     816.063
  H      427.384      37.436     816.683
  H      428.836      36.394     816.745
  H      427.440      46.028     812.110
  H      426.221      44.781     812.219
  H      427.255      44.871     810.813

 3  4  5  6  7  8  9  10  11  12  23  26  30  31 0
 6-311+G(2d,p)
 ****
 33  35  36  37  38 0
 6-311+G(2d,p)
 ****
 1  2  13  14  15  16  17  18  19  20  21  22  24  25 0
 3-21G
 ****
 27  28  29  32  34  39  40  41  42  43  44  45  46  47  48  49 0
 3-21G
 ****


