%nproc=1
%NoSave
%Mem=1900MB
#P OB98/GEN NMR

erre ene a

0 1
  C     -515.437    1027.641    -403.384
  O     -516.032    1026.363    -403.440
  H     -515.305    1027.920    -402.336
  H     -516.091    1028.374    -403.864
  H     -514.458    1027.648    -403.874
  P     -515.941    1025.528    -404.800
  C     -514.218    1023.687    -404.256
  O     -514.452    1024.931    -404.906
  C     -513.271    1022.792    -405.062
  O     -513.911    1022.369    -406.290
  C     -511.996    1023.523    -405.480
  O     -510.967    1023.552    -404.509
  C     -511.568    1022.725    -406.708
  O     -510.789    1021.577    -406.327
  C     -512.906    1022.292    -407.313
  N     -511.733    1023.983    -411.992
  C     -510.976    1023.207    -411.131
  N     -509.736    1022.894    -411.550
  N     -511.406    1022.800    -409.965
  C     -512.632    1023.269    -409.640
  C     -513.470    1024.055    -410.402
  C     -513.010    1024.460    -411.719
  O     -513.637    1025.148    -412.513
  N     -514.639    1024.330    -409.742
  C     -514.482    1023.776    -408.558
  N     -513.288    1023.098    -408.459
  O     -515.934    1026.661    -405.938
  O     -517.046    1024.542    -405.027
  H     -510.061    1021.879    -405.757
  H     -516.288    1026.296    -406.771
  H     -511.367    1024.244    -412.890
  H     -515.205    1023.813    -407.747
  H     -512.873    1021.250    -407.652
  H     -510.941    1023.320    -407.381
  H     -509.320    1023.280    -412.385
  H     -512.227    1024.545    -405.801
  H     -509.063    1022.563    -410.852
  H     -513.047    1021.888    -404.484
  H     -515.187    1023.201    -404.144
  H     -513.822    1023.855    -403.250
  P     -509.678    1024.478    -404.730
  C     -509.965    1026.101    -402.717
  O     -510.026    1025.916    -404.116
  O     -509.691    1024.724    -406.313
  O     -508.394    1023.884    -404.267
  H     -509.086    1024.096    -406.754
  H     -510.225    1027.111    -402.479
  H     -508.972    1025.898    -402.373
  H     -510.652    1025.434    -402.239

 6  7  8  9  10  11  12  13  14  15  26  29  33  34 0
 6-311+G(2d,p)
 ****
 36  38  39  40  41 0
 6-311+G(2d,p)
 ****
 1  2  3  4  5  16  17  18  19  20  21  22  23  24  25 0
 3-21G
 ****
 27  28  30  31  32  35  37  42  43  44  45  46  47 0
 3-21G
 ****
 48  49 0
 3-21G
 ****


