%nproc=1
%NoSave
%Mem=1900MB
#P OB98/GEN NMR

erre ene a

0 1
  C     -411.582     312.645    -449.602
  O     -412.335     313.051    -450.727
  H     -410.563     313.032    -449.704
  H     -411.541     311.555    -449.555
  H     -412.022     313.043    -448.685
  P     -413.905     312.740    -450.700
  C     -415.356     310.553    -450.749
  O     -414.074     311.153    -450.890
  C     -415.550     309.475    -451.815
  O     -414.510     308.478    -451.739
  C     -416.832     308.674    -451.658
  O     -417.982     309.420    -451.987
  C     -416.550     307.520    -452.605
  O     -416.772     307.903    -453.969
  C     -415.042     307.271    -452.345
  N     -414.809     306.100    -451.514
  C     -415.567     304.965    -451.831
  O     -416.365     304.997    -452.766
  N     -415.422     303.841    -451.057
  C     -414.579     303.833    -450.073
  N     -414.490     302.695    -449.343
  C     -413.741     305.000    -449.724
  C     -413.909     306.085    -450.471
  O     -414.401     313.317    -452.106
  O     -414.642     313.274    -449.518
  H     -416.229     308.701    -454.126
  H     -413.903     312.973    -452.867
  H     -413.043     304.946    -448.898
  H     -413.336     306.984    -450.281
  H     -414.508     307.126    -453.295
  H     -417.193     306.663    -452.410
  H     -416.902     308.266    -450.643
  H     -415.494     309.958    -452.801
  H     -415.094     301.923    -449.599
  H     -416.151     311.304    -450.812
  H     -413.892     302.585    -448.534
  H     -415.407     310.108    -449.751
  P     -419.445     308.802    -451.761
  C     -420.473     306.441    -451.800
  O     -419.319     307.232    -452.077
  O     -420.548     309.491    -452.488
  O     -419.607     308.812    -450.167
  H     -418.940     308.291    -449.685
  H     -420.273     305.419    -452.048
  H     -421.297     306.795    -452.384
  H     -420.715     306.515    -450.760

 6  7  8  9  10  11  12  13  14  15  16  26  30  31  32  33  35 0
 6-311+G(2d,p)
 ****
 37  38 0
 6-311+G(2d,p)
 ****
 1  2  3  4  5  17  18  19  20  21  22  23  24  25 0
 3-21G
 ****
 27  28  29  34  36  39  40  41  42  43  44  45  46 0
 3-21G
 ****


