%nproc=1
%NoSave
%Mem=1900MB
#P OB98/GEN NMR

erre ene a

0 1
  C       78.716    -410.958      45.467
  O       78.867    -409.556      45.365
  P       79.941    -408.936      44.348
  C       78.292    -407.700      42.759
  O       79.201    -408.763      42.935
  C       78.452    -407.060      41.374
  O       77.341    -406.154      41.171
  C       79.711    -406.218      41.199
  O       79.946    -406.039      39.798
  C       79.293    -404.901      41.814
  O       80.112    -403.819      41.381
  C       77.799    -404.803      41.414
  N       76.996    -404.171      42.475
  C       77.021    -402.782      42.539
  O       77.617    -402.083      41.720
  N       76.414    -402.224      43.634
  C       75.840    -402.918      44.657
  O       75.582    -402.432      45.752
  C       75.633    -404.353      44.411
  C       76.235    -404.911      43.359
  O       80.947    -410.157      44.107
  O       80.649    -407.722      44.844
  H       81.030    -404.019      41.676
  H       81.720    -410.076      44.691
  H       76.560    -401.229      43.758
  H       75.049    -404.914      45.129
  H       76.141    -405.980      43.181
  H       77.665    -404.218      40.496
  H       79.385    -404.969      42.904
  H       80.597    -406.631      41.682
  H       78.398    -407.839      40.603
  H       78.446    -406.957      43.545
  H       77.261    -408.060      42.869
  P       81.466    -406.092      39.284
  C       81.186    -408.577      38.704
  O       81.937    -407.616      39.420
  O       82.389    -405.075      39.872
  O       81.313    -405.906      37.697
  H       82.164    -405.626      37.317
  H       81.841    -409.411      38.444
  H       80.762    -408.155      37.786
  H       80.374    -408.946      39.338
  H       77.960    -411.184      46.190
  H       79.643    -411.395      45.773
  H       78.430    -411.356      44.516

 3  4  5  6  7  8  9  10  11  12  13  23  28  29  30  31  32 0
 6-311+G(2d,p)
 ****
 33  34 0
 6-311+G(2d,p)
 ****
 1  2  14  15  16  17  18  19  20  21  22  24  25  26  27 0
 3-21G
 ****
 35  36  37  38  39  40  41  42  43  44  45 0
 3-21G
 ****


