%nproc=1
%NoSave
%Mem=1900MB
#P OB98/GEN NMR

erre ene a

0 1
  C     -278.244     -83.251    -205.137
  O     -278.227     -82.136    -204.267
  H     -277.548     -83.067    -205.957
  H     -279.247     -83.386    -205.550
  H     -277.935     -84.155    -204.605
  P     -279.097     -82.245    -202.925
  C     -278.123     -80.930    -200.899
  O     -278.851     -80.880    -202.116
  C     -276.714     -80.376    -201.112
  O     -276.823     -79.065    -201.731
  C     -275.925     -80.205    -199.809
  O     -274.549     -80.512    -200.055
  C     -276.072     -78.722    -199.504
  O     -275.044     -78.203    -198.678
  C     -276.079     -78.134    -200.917
  N     -276.678     -76.804    -200.971
  C     -275.886     -75.761    -201.443
  O     -274.745     -75.894    -201.888
  N     -276.455     -74.515    -201.388
  C     -277.694     -74.213    -200.899
  O     -278.140     -73.072    -200.855
  C     -278.480     -75.355    -200.408
  C     -277.944     -76.576    -200.463
  O     -278.302     -83.331    -202.055
  O     -280.533     -82.601    -203.114
  H     -278.638     -84.229    -202.243
  H     -274.191     -78.574    -198.985
  H     -275.894     -73.746    -201.726
  H     -279.462     -75.153    -200.005
  H     -278.491     -77.438    -200.097
  H     -275.055     -78.093    -201.320
  H     -277.033     -78.540    -199.005
  H     -276.303     -80.826    -198.997
  H     -276.178     -81.023    -201.819
  H     -278.052     -81.973    -200.565
  H     -278.648     -80.348    -200.137
  P     -273.868     -81.635    -199.127
  C     -272.206     -82.630    -200.888
  O     -272.388     -81.851    -199.716
  O     -274.668     -82.942    -199.576
  O     -273.939     -81.311    -197.672
  H     -274.884     -82.961    -200.524
  H     -271.165     -82.667    -201.134
  H     -272.748     -82.188    -201.698
  H     -272.567     -83.622    -200.716

 6  7  8  9  10  11  12  13  14  15  16  27  31  32  33  34  35 0
 6-311+G(2d,p)
 ****
 36  37 0
 6-311+G(2d,p)
 ****
 1  2  3  4  5  17  18  19  20  21  22  23  24  25 0
 3-21G
 ****
 26  28  29  30  38  39  40  41  42  43  44  45 0
 3-21G
 ****


