%nproc=1
%NoSave
%Mem=1900MB
#P OB98/GEN NMR

erre ene a

0 1
  C      -74.167     -58.997     -37.968
  O      -73.946     -57.982     -38.931
  P      -74.335     -56.463     -38.600
  C      -75.967     -56.326     -40.622
  O      -75.786     -56.204     -39.229
  C      -76.974     -55.290     -41.144
  O      -78.213     -55.471     -40.414
  C      -76.570     -53.837     -40.926
  O      -77.349     -53.012     -41.798
  C      -76.997     -53.605     -39.493
  O      -77.146     -52.222     -39.189
  C      -78.293     -54.451     -39.389
  N      -78.432     -55.069     -38.058
  C      -78.939     -54.267     -37.038
  O      -79.334     -53.119     -37.227
  N      -78.895     -54.802     -35.780
  C      -78.360     -56.014     -35.456
  O      -78.048     -56.342     -34.315
  C      -78.065     -56.902     -36.590
  C      -78.089     -56.391     -37.822
  O      -73.352     -55.631     -39.551
  O      -74.185     -56.075     -37.169
  H      -77.381     -52.163     -38.232
  H      -72.562     -55.350     -39.053
  H      -79.128     -54.167     -35.025
  H      -77.779     -57.926     -36.378
  H      -77.825     -57.007     -38.679
  H      -79.186     -53.839     -39.571
  H      -76.232     -54.011     -38.821
  H      -75.502     -53.640     -41.071
  H      -77.176     -55.482     -42.205
  H      -76.302     -57.341     -40.857
  H      -75.012     -56.187     -41.144
  P      -76.592     -51.847     -42.603
  C      -77.662     -50.022     -41.146
  O      -76.457     -50.613     -41.589
  O      -77.148     -51.517     -43.949
  O      -75.087     -52.395     -42.698
  H      -74.611     -51.927     -43.409
  H      -77.506     -49.604     -40.148
  H      -78.474     -50.754     -41.102
  H      -77.939     -49.213     -41.831
  H      -73.849     -59.939     -38.363
  H      -75.210     -59.043     -37.732
  H      -73.610     -58.775     -37.082

 3  4  5  6  7  8  9  10  11  12  13  23  28  29  30  31  32 0
 6-311+G(2d,p)
 ****
 33  34 0
 6-311+G(2d,p)
 ****
 1  2  14  15  16  17  18  19  20  21  22  24  25  26  27 0
 3-21G
 ****
 35  36  37  38  39  40  41  42  43  44  45 0
 3-21G
 ****


