%nproc=1
%NoSave
%Mem=1900MB
#P OB98/GEN NMR

erre ene a

0 1
  C       56.480     -47.251     200.494
  O       56.092     -46.644     199.275
  H       56.432     -46.500     201.287
  H       57.508     -47.617     200.416
  H       55.804     -48.075     200.743
  P       55.919     -47.619     198.009
  C       57.772     -46.401     196.600
  O       56.411     -46.769     196.739
  C       57.928     -45.298     195.550
  O       57.101     -44.168     195.935
  C       59.365     -44.793     195.395
  O       59.585     -44.469     194.021
  C       59.378     -43.513     196.218
  O       60.413     -42.625     195.813
  C       57.944     -43.000     195.996
  N       57.514     -42.078     197.046
  C       58.040     -40.781     196.999
  O       58.837     -40.469     196.113
  N       57.689     -39.888     197.977
  C       56.930     -40.269     198.954
  N       56.637     -39.341     199.907
  C       56.387     -41.638     199.070
  C       56.708     -42.478     198.087
  O       54.328     -47.662     197.843
  O       56.560     -48.956     198.167
  H       60.414     -42.572     194.832
  H       53.906     -46.790     197.921
  H       55.767     -41.911     199.912
  H       56.346     -43.500     198.085
  H       57.870     -42.483     195.030
  H       59.534     -43.752     197.278
  H       60.108     -45.520     195.727
  H       57.535     -45.667     194.594
  H       57.049     -38.420     199.799
  H       58.373     -47.267     196.304
  H       56.102     -39.541     200.740
  H       58.133     -46.051     197.574
  P       60.853     -45.087     193.258
  C       61.873     -43.195     191.816
  O       61.035     -44.346     191.846
  O       60.915     -46.576     193.206
  O       62.089     -44.507     194.109
  H       62.749     -45.222     194.197
  H       61.905     -42.803     190.821
  H       62.861     -43.465     192.125
  H       61.482     -42.452     192.479

 6  7  8  9  10  11  12  13  14  15  16  26  30  31  32  33  35 0
 6-311+G(2d,p)
 ****
 37  38 0
 6-311+G(2d,p)
 ****
 1  2  3  4  5  17  18  19  20  21  22  23  24  25 0
 3-21G
 ****
 27  28  29  34  36  39  40  41  42  43  44  45  46 0
 3-21G
 ****


