%nproc=1
%NoSave
%Mem=1900MB
#P OB98/GEN NMR

erre ene a

0 1
  C       -4.679     -18.956     -87.428
  O       -5.152     -18.182     -88.512
  H       -5.465     -19.017     -86.670
  H       -3.802     -18.474     -86.984
  H       -4.424     -19.966     -87.755
  P       -4.229     -18.138     -89.822
  C       -2.617     -16.325     -88.896
  O       -3.586     -16.667     -89.878
  C       -1.806     -15.117     -89.358
  O       -0.754     -15.534     -90.257
  C       -2.616     -14.064     -90.108
  O       -3.297     -13.191     -89.218
  C       -1.506     -13.336     -90.850
  O       -0.812     -12.455     -89.946
  C       -0.593     -14.497     -91.267
  N        0.273     -14.124     -96.250
  C        0.758     -13.362     -95.205
  N        1.583     -12.346     -95.536
  N        0.456     -13.568     -93.949
  C       -0.390     -14.611     -93.768
  C       -0.937     -15.442     -94.720
  C       -0.589     -15.207     -96.103
  O       -0.970     -15.867     -97.065
  N       -1.741     -16.395     -94.152
  C       -1.699     -16.129     -92.862
  N       -0.898     -15.049     -92.576
  O       -5.289     -18.119     -91.025
  O       -3.267     -19.267     -89.967
  H       -1.414     -11.713     -89.757
  H       -4.927     -18.633     -91.772
  H        0.527     -13.916     -97.199
  H       -2.225     -16.685     -92.096
  H        0.466     -14.211     -91.278
  H       -1.882     -12.723     -91.671
  H        1.817     -12.103     -96.486
  H       -3.300     -14.524     -90.832
  H        1.979     -11.792     -94.785
  H       -1.324     -14.676     -88.474
  H       -1.946     -17.175     -88.740
  H       -3.130     -16.096     -87.955
  P       -4.904     -13.163     -89.289
  C       -5.128     -12.112     -91.653
  O       -5.271     -11.930     -90.251
  O       -5.317     -12.635     -87.834
  O       -5.542     -14.468     -89.617
  H       -6.231     -12.913     -87.627
  H       -5.407     -11.212     -92.160
  H       -5.760     -12.913     -91.975
  H       -4.109     -12.348     -91.880

 6  7  8  9  10  11  12  13  14  15  26  29  33  34 0
 6-311+G(2d,p)
 ****
 36  38  39  40  41 0
 6-311+G(2d,p)
 ****
 1  2  3  4  5  16  17  18  19  20  21  22  23  24  25 0
 3-21G
 ****
 27  28  30  31  32  35  37  42  43  44  45  46  47 0
 3-21G
 ****
 48  49 0
 3-21G
 ****


