%nproc=1
%NoSave
%Mem=1900MB
#P OB98/GEN NMR

erre ene a

0 1
  C      442.943    -810.632      12.220
  O      441.840    -811.483      12.482
  P      441.966    -812.505      13.715
  C      443.803    -814.166      14.516
  O      443.378    -813.242      13.518
  C      444.627    -815.296      13.881
  O      445.875    -814.776      13.393
  C      444.993    -816.408      14.852
  O      443.930    -817.345      15.025
  C      446.150    -817.060      14.099
  O      445.657    -817.910      13.059
  C      446.854    -815.841      13.502
  N      451.485    -817.036      15.318
  C      450.596    -817.745      14.608
  N      449.378    -817.361      14.179
  C      449.095    -816.104      14.585
  C      449.901    -815.281      15.356
  C      451.163    -815.779      15.716
  N      452.089    -815.040      16.422
  N      449.274    -814.064      15.572
  C      448.126    -814.168      14.929
  N      447.978    -815.370      14.311
  O      440.902    -813.639      13.349
  O      441.727    -811.915      15.058
  H      445.341    -818.728      13.487
  H      440.627    -814.115      14.163
  H      450.901    -818.756      14.349
  H      447.376    -813.386      14.893
  H      447.246    -816.036      12.494
  H      446.773    -817.677      14.754
  H      445.353    -816.019      15.805
  H      444.047    -815.688      13.036
  H      442.917    -814.592      15.001
  H      453.021    -815.407      16.487
  H      451.911    -814.051      16.531
  H      444.401    -813.630      15.268
  P      443.560    -817.737      16.536
  C      444.761    -819.166      18.366
  O      444.685    -818.770      16.995
  O      442.251    -818.641      16.364
  O      443.334    -816.575      17.434
  H      441.706    -818.614      17.167
  H      445.349    -820.088      18.430
  H      443.742    -819.373      18.753
  H      445.220    -818.376      18.937
  H      442.722    -810.010      11.378
  H      443.808    -811.225      12.008
  H      443.132    -810.019      13.076

 3  4  5  6  7  8  9  10  11  12  22  25  29  30  31  32 0
 6-311+G(2d,p)
 ****
 33  36  37 0
 6-311+G(2d,p)
 ****
 1  2  13  14  15  16  17  18  19  20  21  23  24  26 0
 3-21G
 ****
 27  28  34  35  38  39  40  41  42  43  44  45  46  47  48 0
 3-21G
 ****


