%nproc=1
%NoSave
%Mem=1900MB
#P OB98/GEN NMR

erre ene a

0 1
  C      389.764    -453.579     -38.008
  O      390.234    -454.681     -38.794
  P      391.819    -454.903     -38.914
  C      391.452    -457.328     -39.777
  O      392.081    -456.075     -39.990
  C      391.633    -458.230     -41.012
  O      390.819    -457.780     -42.119
  C      393.061    -458.249     -41.543
  O      393.872    -459.169     -40.819
  C      392.845    -458.752     -42.957
  O      392.675    -460.187     -42.950
  C      391.546    -458.053     -43.351
  N      391.107    -455.823     -47.878
  C      390.795    -457.115     -47.483
  N      390.279    -457.931     -48.434
  N      390.959    -457.575     -46.260
  C      391.468    -456.631     -45.407
  C      391.834    -455.319     -45.686
  C      391.656    -454.849     -47.038
  O      391.922    -453.726     -47.451
  N      392.302    -454.704     -44.568
  C      392.240    -455.616     -43.624
  N      391.748    -456.820     -44.084
  O      392.177    -455.617     -37.518
  O      392.613    -453.657     -39.111
  H      392.863    -460.486     -43.858
  H      393.100    -455.417     -37.272
  H      390.964    -455.535     -48.830
  H      392.517    -455.461     -42.588
  H      390.901    -458.696     -43.985
  H      393.703    -458.535     -43.622
  H      390.072    -457.626     -49.379
  H      393.507    -457.236     -41.554
  H      390.002    -458.864     -48.155
  H      391.337    -459.261     -40.744
  H      390.379    -457.204     -39.578
  H      391.877    -457.794     -38.882
  P      394.946    -458.579     -39.769
  C      394.196    -460.615     -38.331
  O      395.254    -459.752     -38.737
  O      394.052    -457.539     -38.916
  O      396.133    -457.913     -40.390
  H      394.623    -456.785     -38.635
  H      394.627    -461.446     -37.768
  H      393.679    -461.029     -39.210
  H      393.483    -460.077     -37.710
  H      388.694    -453.561     -38.023
  H      390.142    -452.664     -38.415
  H      390.105    -453.689     -37.000

 3  4  5  6  7  8  9  10  11  12  23  26  30  31 0
 6-311+G(2d,p)
 ****
 33  35  36  37  38 0
 6-311+G(2d,p)
 ****
 1  2  13  14  15  16  17  18  19  20  21  22  24  25 0
 3-21G
 ****
 27  28  29  32  34  39  40  41  42  43  44  45  46  47  48  49 0
 3-21G
 ****


