%nproc=1
%NoSave
%Mem=1900MB
#P OB98/GEN NMR

erre ene a

0 1
  C       49.484    -129.110    -160.003
  O       49.551    -129.500    -161.379
  P       48.178    -129.904    -162.104
  C       48.495    -132.481    -162.097
  O       47.749    -131.372    -161.615
  C       47.947    -133.808    -161.548
  O       48.163    -133.903    -160.112
  C       46.445    -133.991    -161.781
  O       46.176    -135.393    -161.915
  C       45.845    -133.506    -160.476
  O       44.509    -133.978    -160.299
  C       46.872    -134.049    -159.483
  N       45.676    -134.478    -154.599
  C       45.544    -135.387    -155.634
  N       45.050    -136.602    -155.309
  N       45.866    -135.129    -156.875
  C       46.379    -133.884    -157.042
  C       46.554    -132.893    -156.103
  C       46.168    -133.186    -154.738
  O       46.250    -132.416    -153.785
  N       47.080    -131.756    -156.665
  C       47.217    -132.059    -157.941
  N       46.839    -133.349    -158.213
  O       48.629    -130.135    -163.623
  O       47.114    -128.860    -162.009
  H       44.554    -134.958    -160.222
  H       48.299    -129.405    -164.179
  H       45.401    -134.729    -153.666
  H       47.579    -131.389    -158.707
  H       46.717    -135.113    -159.264
  H       45.825    -132.409    -160.458
  H       44.831    -136.884    -154.365
  H       46.046    -133.463    -162.652
  H       44.982    -137.300    -156.040
  H       48.497    -134.634    -162.015
  H       49.547    -132.379    -161.812
  H       48.485    -132.469    -163.191
  P       46.155    -135.991    -163.404
  C       43.808    -137.093    -163.236
  O       44.613    -136.087    -163.824
  O       46.584    -137.522    -163.202
  O       47.044    -135.282    -164.374
  H       46.981    -137.872    -164.020
  H       43.174    -136.640    -162.469
  H       44.411    -137.889    -162.785
  H       43.171    -137.532    -164.010
  H       50.466    -128.870    -159.652
  H       49.085    -129.916    -159.423
  H       48.851    -128.253    -159.906

 3  4  5  6  7  8  9  10  11  12  23  26  30  31 0
 6-311+G(2d,p)
 ****
 33  35  36  37  38 0
 6-311+G(2d,p)
 ****
 1  2  13  14  15  16  17  18  19  20  21  22  24  25 0
 3-21G
 ****
 27  28  29  32  34  39  40  41  42  43  44  45  46  47  48  49 0
 3-21G
 ****


