%nproc=1
%NoSave
%Mem=1900MB
#P OB98/GEN NMR

erre ene a

0 1
  C     -104.117      48.093    -570.489
  O     -105.014      47.046    -570.804
  H     -104.613      48.781    -569.800
  H     -103.837      48.635    -571.395
  H     -103.225      47.689    -570.005
  P     -104.512      45.981    -571.897
  C     -103.044      45.002    -569.977
  O     -103.101      45.474    -571.315
  C     -102.538      43.558    -569.954
  O     -103.419      42.698    -570.708
  C     -101.155      43.368    -570.579
  O     -100.094      43.777    -569.733
  C     -101.171      41.863    -570.781
  O     -100.980      41.206    -569.513
  C     -102.605      41.654    -571.308
  N     -102.691      41.714    -572.771
  C     -102.098      40.662    -573.481
  O     -101.537      39.747    -572.886
  N     -102.123      40.686    -574.853
  C     -102.707      41.665    -575.466
  N     -102.698      41.646    -576.827
  C     -103.356      42.790    -574.763
  C     -103.312      42.751    -573.436
  O     -104.070      46.897    -573.135
  O     -105.472      44.892    -572.243
  H     -101.850      41.177    -569.081
  H     -103.605      46.348    -573.814
  H     -103.822      43.595    -575.322
  H     -103.766      43.544    -572.847
  H     -103.013      40.688    -570.976
  H     -100.385      41.510    -571.443
  H     -101.086      43.855    -571.558
  H     -102.555      43.219    -568.912
  H     -102.196      40.890    -577.280
  H     -104.054      45.051    -569.554
  H     -102.992      42.429    -577.396
  H     -102.377      45.630    -569.384
  P      -98.723      44.234    -570.439
  C      -99.310      46.771    -570.290
  O      -99.014      45.659    -571.123
  O      -98.611      43.243    -571.685
  O      -97.517      44.181    -569.557
  H      -97.673      43.029    -571.877
  H      -99.477      47.637    -570.897
  H      -98.487      46.951    -569.630
  H     -100.189      46.563    -569.716

 6  7  8  9  10  11  12  13  14  15  16  26  30  31  32  33  35 0
 6-311+G(2d,p)
 ****
 37  38 0
 6-311+G(2d,p)
 ****
 1  2  3  4  5  17  18  19  20  21  22  23  24  25 0
 3-21G
 ****
 27  28  29  34  36  39  40  41  42  43  44  45  46 0
 3-21G
 ****


