%nproc=1
%NoSave
%Mem=1900MB
#P OB98/GEN NMR

erre ene a

0 1
  C     -388.373    -140.857     151.370
  O     -387.758    -141.972     151.989
  H     -387.654    -140.390     150.693
  H     -388.666    -140.127     152.130
  H     -389.249    -141.172     150.797
  P     -388.716    -142.929     152.843
  C     -387.778    -145.036     151.593
  O     -388.914    -144.283     151.998
  C     -388.174    -146.488     151.342
  O     -387.016    -147.287     151.030
  C     -388.777    -147.187     152.550
  O     -390.090    -146.750     152.831
  C     -388.706    -148.640     152.097
  O     -389.828    -148.997     151.282
  C     -387.396    -148.663     151.271
  N     -386.353    -149.419     151.934
  C     -386.569    -150.803     152.007
  O     -387.578    -151.296     151.506
  N     -385.654    -151.573     152.674
  C     -384.630    -151.017     153.243
  N     -383.779    -151.836     153.915
  C     -384.369    -149.565     153.192
  C     -385.262    -148.830     152.529
  O     -390.136    -142.204     152.712
  O     -388.277    -143.160     154.251
  H     -389.929    -149.968     151.361
  H     -390.372    -141.970     151.798
  H     -383.493    -149.151     153.672
  H     -385.149    -147.756     152.441
  H     -387.574    -149.114     150.284
  H     -388.700    -149.327     152.948
  H     -388.123    -147.070     153.421
  H     -388.857    -146.513     150.483
  H     -384.027    -152.818     153.972
  H     -386.990    -144.981     152.352
  H     -382.997    -151.507     154.461
  H     -387.389    -144.582     150.677
  P     -390.928    -147.368     154.048
  C     -389.957    -145.493     155.526
  O     -390.202    -146.891     155.399
  O     -391.179    -148.835     153.972
  O     -392.261    -146.478     154.056
  H     -392.114    -145.525     154.188
  H     -389.473    -145.299     156.460
  H     -390.886    -144.963     155.489
  H     -389.328    -145.167     154.724

 6  7  8  9  10  11  12  13  14  15  16  26  30  31  32  33  35 0
 6-311+G(2d,p)
 ****
 37  38 0
 6-311+G(2d,p)
 ****
 1  2  3  4  5  17  18  19  20  21  22  23  24  25 0
 3-21G
 ****
 27  28  29  34  36  39  40  41  42  43  44  45  46 0
 3-21G
 ****


