%nproc=1
%NoSave
%Mem=1900MB
#P OB98/GEN NMR

erre ene a

0 1
  C      159.148    -589.817      90.510
  O      158.204    -590.785      90.918
  P      156.795    -590.337      91.542
  C      155.667    -590.079      89.236
  O      156.109    -589.416      90.418
  C      154.144    -590.012      89.113
  O      153.711    -588.647      88.938
  C      153.583    -590.782      87.927
  O      153.565    -592.173      88.201
  C      152.207    -590.148      87.787
  O      151.267    -590.725      88.705
  C      152.493    -588.675      88.156
  N      152.587    -587.813      86.984
  C      151.390    -587.215      86.573
  O      150.337    -587.451      87.165
  N      151.405    -586.399      85.467
  C      152.518    -586.221      84.816
  N      152.466    -585.415      83.723
  C      153.790    -586.860      85.201
  C      153.750    -587.635      86.282
  O      156.862    -589.742      92.908
  O      155.931    -591.683      91.476
  H      151.581    -590.488      89.599
  H      156.209    -592.330      92.170
  H      154.688    -586.690      84.622
  H      154.643    -588.144      86.631
  H      151.703    -588.281      88.809
  H      151.796    -590.274      86.780
  H      154.178    -590.572      87.030
  H      153.710    -590.389      90.050
  H      151.567    -585.021      83.475
  H      155.980    -591.126      89.293
  H      153.260    -585.238      83.128
  H      156.147    -589.622      88.364
  P      153.234    -593.210      87.027
  C      155.663    -594.013      86.859
  O      154.573    -593.432      86.175
  O      152.014    -592.903      86.222
  O      153.065    -594.604      87.800
  H      152.280    -595.068      87.447
  H      156.368    -594.407      86.125
  H      155.334    -594.826      87.513
  H      156.170    -593.248      87.458
  H      160.017    -590.307      90.123
  H      159.423    -589.212      91.348
  H      158.719    -589.199      89.749

 3  4  5  6  7  8  9  10  11  12  13  23  27  28  29  30  32 0
 6-311+G(2d,p)
 ****
 34  35 0
 6-311+G(2d,p)
 ****
 1  2  14  15  16  17  18  19  20  21  22  24  25  26 0
 3-21G
 ****
 31  33  36  37  38  39  40  41  42  43  44  45  46 0
 3-21G
 ****


