%nproc=1
%NoSave
%Mem=1900MB
#P OB98/GEN NMR

erre ene a

0 1
  C     1277.725    1282.630    -334.412
  O     1277.209    1283.922    -334.713
  P     1276.321    1284.776    -333.686
  C     1274.182    1285.267    -335.024
  O     1275.394    1285.792    -334.507
  C     1273.351    1286.338    -335.788
  O     1274.034    1286.691    -336.992
  C     1271.955    1285.882    -336.192
  O     1271.089    1285.892    -335.095
  C     1271.647    1286.927    -337.277
  O     1271.178    1288.163    -336.701
  C     1273.024    1287.093    -337.950
  N     1273.138    1286.389    -339.198
  C     1272.869    1287.123    -340.394
  O     1272.503    1288.309    -340.285
  N     1272.990    1286.503    -341.588
  C     1273.293    1285.234    -341.623
  N     1273.437    1284.678    -342.880
  C     1273.507    1284.417    -340.433
  C     1273.415    1285.049    -339.273
  O     1277.098    1285.420    -332.592
  O     1275.278    1283.718    -333.085
  H     1271.858    1288.423    -336.055
  H     1275.051    1283.991    -332.170
  H     1273.716    1283.361    -340.517
  H     1273.536    1284.527    -338.333
  H     1273.202    1288.183    -338.117
  H     1270.864    1286.569    -337.978
  H     1271.990    1284.896    -336.638
  H     1273.302    1287.200    -335.139
  H     1273.288    1285.264    -343.685
  H     1273.573    1284.889    -334.183
  H     1273.633    1283.702    -343.017
  H     1274.392    1284.411    -335.684
  P     1269.994    1284.728    -334.923
  C     1268.031    1286.352    -334.886
  O     1268.731    1285.344    -334.197
  O     1270.520    1283.446    -334.363
  O     1269.461    1284.475    -336.430
  H     1269.212    1283.547    -336.521
  H     1267.008    1286.398    -334.507
  H     1267.989    1286.159    -335.954
  H     1268.526    1287.315    -334.688
  H     1278.282    1282.265    -335.249
  H     1276.915    1281.962    -334.204
  H     1278.365    1282.692    -333.557

 3  4  5  6  7  8  9  10  11  12  13  23  27  28  29  30  32 0
 6-311+G(2d,p)
 ****
 34  35 0
 6-311+G(2d,p)
 ****
 1  2  14  15  16  17  18  19  20  21  22  24  25  26 0
 3-21G
 ****
 31  33  36  37  38  39  40  41  42  43  44  45  46 0
 3-21G
 ****


