%nproc=1
%NoSave
%Mem=1900MB
#P OB98/GEN NMR

erre ene a

0 1
  C      342.382     -18.096    -138.890
  O      342.267     -16.676    -138.857
  P      341.178     -15.973    -139.797
  C      339.442     -15.424    -137.877
  O      339.740     -16.045    -139.108
  C      338.142     -16.017    -137.311
  O      338.291     -17.438    -137.099
  C      337.731     -15.407    -135.975
  O      336.964     -14.228    -136.143
  C      336.962     -16.544    -135.334
  O      335.639     -16.632    -135.893
  C      337.812     -17.763    -135.763
  N      338.972     -18.133    -134.923
  C      339.182     -19.468    -134.582
  O      338.454     -20.393    -134.931
  N      340.289     -19.725    -133.817
  C      341.280     -18.841    -133.508
  O      342.279     -19.141    -132.869
  C      341.085     -17.480    -134.018
  C      339.959     -17.191    -134.676
  O      341.055     -16.966    -141.042
  O      341.535     -14.583    -140.222
  H      335.165     -15.820    -135.640
  H      341.363     -16.529    -141.857
  H      340.418     -20.674    -133.501
  H      341.869     -16.756    -133.836
  H      339.807     -16.184    -135.057
  H      337.186     -18.659    -135.848
  H      336.830     -16.379    -134.267
  H      338.615     -15.211    -135.362
  H      337.344     -15.868    -138.050
  H      339.336     -14.344    -138.001
  H      340.268     -15.583    -137.176
  P      337.693     -12.843    -136.474
  C      336.793     -12.878    -138.875
  O      337.948     -12.856    -138.059
  O      338.877     -12.508    -135.633
  O      336.522     -11.757    -136.322
  H      336.542     -11.346    -135.427
  H      337.094     -12.725    -139.914
  H      336.103     -12.081    -138.585
  H      336.296     -13.849    -138.790
  H      343.148     -18.408    -138.211
  H      342.634     -18.410    -139.881
  H      341.450     -18.536    -138.603

 3  4  5  6  7  8  9  10  11  12  13  23  28  29  30  31  32 0
 6-311+G(2d,p)
 ****
 33  34 0
 6-311+G(2d,p)
 ****
 1  2  14  15  16  17  18  19  20  21  22  24  25  26  27 0
 3-21G
 ****
 35  36  37  38  39  40  41  42  43  44  45 0
 3-21G
 ****


