%nproc=1
%NoSave
%Mem=1900MB
#P OB98/GEN NMR

erre ene a

0 1
  C     -120.664    -135.291    -138.650
  O     -121.178    -133.991    -138.983
  P     -120.392    -133.088    -140.054
  C     -120.981    -131.939    -142.330
  O     -121.447    -132.523    -141.122
  C     -122.081    -131.979    -143.394
  O     -122.354    -133.342    -143.790
  C     -123.421    -131.424    -142.932
  O     -123.428    -130.007    -142.904
  C     -124.366    -132.015    -143.972
  O     -124.371    -131.221    -145.171
  C     -123.728    -133.394    -144.235
  N     -124.456    -134.482    -143.591
  C     -125.685    -134.819    -144.149
  O     -126.186    -134.211    -145.094
  N     -126.343    -135.862    -143.557
  C     -125.933    -136.543    -142.445
  O     -126.578    -137.458    -141.950
  C     -124.668    -136.089    -141.852
  C     -124.002    -135.093    -142.440
  O     -119.612    -134.196    -140.914
  O     -119.436    -132.091    -139.486
  H     -123.528    -131.404    -145.630
  H     -118.796    -133.807    -141.282
  H     -127.222    -136.142    -143.963
  H     -124.319    -136.587    -140.957
  H     -123.063    -134.746    -142.015
  H     -123.686    -133.590    -145.313
  H     -125.400    -132.066    -143.617
  H     -123.674    -131.832    -141.946
  H     -121.723    -131.433    -144.277
  H     -120.114    -132.500    -142.691
  H     -120.673    -130.908    -142.132
  P     -123.495    -129.314    -141.456
  C     -121.556    -127.902    -140.421
  O     -122.426    -128.123    -141.509
  O     -122.817    -130.445    -140.547
  O     -124.882    -128.938    -141.051
  H     -122.124    -130.932    -141.024
  H     -121.288    -128.836    -139.922
  H     -122.038    -127.231    -139.703
  H     -120.643    -127.426    -140.791
  H     -121.304    -135.753    -137.927
  H     -119.679    -135.192    -138.243
  H     -120.626    -135.896    -139.532

 3  4  5  6  7  8  9  10  11  12  13  23  28  29  30  31  32 0
 6-311+G(2d,p)
 ****
 33  34 0
 6-311+G(2d,p)
 ****
 1  2  14  15  16  17  18  19  20  21  22  24  25  26 0
 3-21G
 ****
 27  35  36  37  38  39  40  41  42  43  44  45 0
 3-21G
 ****


