%nproc=1
%NoSave
%Mem=1900MB
#P OB98/GEN NMR

erre ene a

0 1
  C     -426.739    -862.350     255.952
  O     -426.305    -861.372     255.001
  P     -425.684    -861.897     253.626
  C     -423.794    -860.378     252.686
  O     -425.211    -860.613     252.759
  C     -423.471    -858.891     252.873
  O     -424.464    -858.099     252.144
  C     -423.560    -858.396     254.331
  O     -422.381    -858.474     255.133
  C     -423.849    -856.908     254.122
  O     -422.608    -856.197     253.882
  C     -424.715    -856.879     252.869
  N     -428.393    -853.744     254.588
  C     -427.056    -853.565     254.402
  N     -426.155    -854.452     253.940
  C     -426.740    -855.626     253.644
  C     -428.080    -855.956     253.766
  C     -428.932    -854.952     254.271
  N     -430.288    -855.137     254.466
  N     -428.309    -857.248     253.367
  C     -427.117    -857.709     253.023
  N     -426.133    -856.752     253.162
  O     -426.475    -862.898     252.869
  O     -424.270    -862.515     254.092
  H     -422.138    -856.178     254.745
  H     -424.089    -863.310     253.556
  H     -426.671    -852.581     254.668
  H     -426.926    -858.707     252.671
  H     -424.454    -856.044     252.199
  H     -424.309    -856.441     255.010
  H     -424.398    -858.859     254.857
  H     -422.493    -858.671     252.463
  H     -423.423    -860.711     251.705
  H     -430.811    -854.384     254.869
  H     -430.690    -856.039     254.275
  H     -423.314    -861.009     253.438
  P     -421.979    -859.841     255.887
  C     -420.397    -858.183     257.178
  O     -420.642    -859.487     256.708
  O     -421.883    -861.044     255.022
  O     -423.089    -859.930     257.046
  H     -422.999    -859.252     257.735
  H     -419.567    -858.203     257.889
  H     -421.285    -857.794     257.686
  H     -420.134    -857.534     256.341
  H     -427.129    -861.857     256.818
  H     -425.910    -862.965     256.235
  H     -427.502    -862.959     255.514

 3  4  5  6  7  8  9  10  11  12  22  25  29  30  31  32 0
 6-311+G(2d,p)
 ****
 33  36  37 0
 6-311+G(2d,p)
 ****
 1  2  13  14  15  16  17  18  19  20  21  23  24  26 0
 3-21G
 ****
 27  28  34  35  38  39  40  41  42  43  44  45  46  47  48 0
 3-21G
 ****


