%nproc=1
%NoSave
%Mem=1900MB
#P OB98/GEN NMR

erre ene a

0 1
  C       -5.560    -245.098      -8.128
  O       -6.553    -246.005      -8.567
  H       -5.801    -244.784      -7.109
  H       -5.538    -244.216      -8.774
  H       -4.583    -245.586      -8.126
  P       -6.402    -246.562     -10.064
  C       -5.364    -248.757      -9.201
  O       -5.166    -247.586      -9.985
  C       -5.504    -249.985     -10.102
  O       -4.328    -250.076     -10.945
  C       -5.624    -251.299      -9.326
  O       -6.548    -252.156      -9.994
  C       -4.227    -251.891      -9.411
  O       -4.229    -253.310      -9.277
  C       -3.759    -251.385     -10.774
  N        0.444    -254.033     -11.940
  C       -0.869    -254.309     -12.089
  N       -1.928    -253.537     -11.765
  C       -1.520    -252.350     -11.282
  C       -0.220    -251.928     -11.070
  C        0.797    -252.834     -11.417
  N        2.136    -252.570     -11.246
  N       -0.209    -250.662     -10.515
  C       -1.479    -250.322     -10.409
  N       -2.309    -251.318     -10.844
  O       -6.307    -245.526     -11.133
  O       -7.658    -247.546     -10.172
  H       -3.303    -253.610      -9.164
  H       -7.756    -248.090      -9.369
  H       -1.102    -255.281     -12.519
  H       -1.847    -249.381     -10.013
  H       -4.096    -252.025     -11.599
  H       -3.603    -251.477      -8.609
  H       -5.938    -251.148      -8.294
  H       -6.362    -249.836     -10.768
  H       -6.262    -248.651      -8.585
  H        2.800    -253.270     -11.536
  H        2.419    -251.676     -10.874
  H       -4.499    -248.870      -8.540
  P       -7.520    -253.071      -9.105
  C       -9.349    -251.251      -9.078
  O       -8.527    -252.114      -8.300
  O       -6.857    -254.133      -8.294
  O       -8.485    -253.722     -10.209
  H       -8.682    -254.643      -9.953
  H       -9.970    -250.669      -8.429
  H       -9.963    -251.836      -9.730
  H       -8.731    -250.599      -9.660

 6  7  8  9  10  11  12  13  14  15  25  28  32  33  34  35 0
 6-311+G(2d,p)
 ****
 36  39  40 0
 6-311+G(2d,p)
 ****
 1  2  3  4  5  16  17  18  19  20  21  22  23  24 0
 3-21G
 ****
 26  27  29  30  31  37  38  41  42  43  44  45  46  47 0
 3-21G
 ****
 48 0
 3-21G
 ****


