%nproc=1
%NoSave
%Mem=1900MB
#P OB98/GEN NMR

erre ene a

0 1
  C      630.385     277.184     177.832
  O      631.224     278.182     177.237
  P      631.519     279.598     177.927
  C      634.063     279.313     178.285
  O      633.031     280.030     177.612
  C      635.359     279.283     177.463
  O      635.325     278.223     176.490
  C      635.641     280.555     176.675
  O      636.106     281.594     177.524
  C      636.665     280.050     175.661
  O      637.984     280.017     176.230
  C      636.149     278.623     175.381
  N      635.425     278.531     174.119
  C      636.198     278.528     172.953
  O      637.423     278.651     173.014
  N      635.559     278.403     171.738
  C      634.263     278.363     171.687
  N      633.686     278.228     170.468
  C      633.411     278.462     172.893
  C      634.049     278.536     174.056
  O      631.163     279.658     179.379
  O      630.651     280.656     177.093
  H      638.203     280.947     176.456
  H      630.384     281.384     177.685
  H      632.332     278.449     172.807
  H      633.496     278.606     174.987
  H      636.985     277.913     175.348
  H      636.718     280.681     174.767
  H      634.737     280.877     176.148
  H      636.187     279.076     178.161
  H      634.302     278.160     169.664
  H      633.710     278.282     178.438
  H      632.693     278.190     170.321
  H      634.241     279.777     179.259
  P      636.142     283.102     176.988
  C      634.745     284.084     178.900
  O      636.005     284.070     178.257
  O      635.227     283.413     175.846
  O      637.676     283.312     176.554
  H      637.709     283.936     175.804
  H      634.886     284.436     179.930
  H      634.299     283.087     178.924
  H      634.083     284.776     178.379
  H      630.338     276.329     177.191
  H      629.401     277.581     177.970
  H      630.790     276.897     178.780

 3  4  5  6  7  8  9  10  11  12  13  23  27  28  29  30  32 0
 6-311+G(2d,p)
 ****
 34  35 0
 6-311+G(2d,p)
 ****
 1  2  14  15  16  17  18  19  20  21  22  24  25  26 0
 3-21G
 ****
 31  33  36  37  38  39  40  41  42  43  44  45  46 0
 3-21G
 ****


