%nproc=1
%NoSave
%Mem=1900MB
#P OB98/GEN NMR

erre ene a

0 1
  C       44.949     137.740      77.699
  O       45.918     137.479      76.706
  H       44.665     138.794      77.643
  H       45.359     137.539      78.692
  H       44.062     137.125      77.530
  P       46.518     135.992      76.653
  C       48.689     134.864      77.524
  O       47.831     135.994      77.575
  C       50.142     135.323      77.573
  O       50.463     136.066      76.375
  C       50.460     136.261      78.728
  O       50.620     135.568      79.954
  C       51.750     136.896      78.238
  O       52.888     136.072      78.532
  C       51.515     136.992      76.714
  N       51.203     138.353      76.291
  C       52.280     139.234      76.249
  O       53.428     138.908      76.547
  N       51.987     140.520      75.889
  C       50.745     141.009      75.611
  O       50.540     142.191      75.365
  C       49.646     140.029      75.656
  C       49.920     138.768      75.998
  O       47.097     135.889      75.165
  O       45.542     134.906      76.955
  H       46.489     135.369      74.607
  H       53.671     136.569      78.226
  H       52.752     141.175      75.864
  H       48.647     140.383      75.434
  H       49.123     138.033      76.060
  H       52.409     136.666      76.169
  H       51.927     137.861      78.712
  H       49.691     137.038      78.809
  H       50.787     134.433      77.608
  H       48.518     134.317      76.592
  H       48.460     134.204      78.367
  P       51.031     136.405      81.258
  C       53.411     136.869      82.267
  O       52.596     136.726      81.119
  O       50.962     135.275      82.386
  O       50.168     137.595      81.504
  H       51.249     134.402      82.067
  H       54.416     137.079      81.967
  H       53.391     135.962      82.834
  H       53.042     137.674      82.868

 6  7  8  9  10  11  12  13  14  15  16  27  31  32  33  34  35 0
 6-311+G(2d,p)
 ****
 36  37 0
 6-311+G(2d,p)
 ****
 1  2  3  4  5  17  18  19  20  21  22  23  24  25 0
 3-21G
 ****
 26  28  29  30  38  39  40  41  42  43  44  45 0
 3-21G
 ****


