%nproc=1
%NoSave
%Mem=1900MB
#P OB98/GEN NMR

erre ene a

0 1
  C     -207.337     793.788    -229.226
  O     -206.028     794.152    -229.650
  H     -207.613     792.862    -229.738
  H     -208.046     794.564    -229.482
  H     -207.339     793.609    -228.158
  P     -205.468     795.551    -229.103
  C     -204.927     794.841    -226.645
  O     -204.432     795.118    -227.945
  C     -204.014     793.837    -225.946
  O     -203.940     792.601    -226.685
  C     -202.561     794.293    -225.795
  O     -202.376     795.225    -224.742
  C     -201.898     792.960    -225.497
  O     -202.191     792.573    -224.135
  C     -202.611     792.035    -226.497
  N     -201.905     791.953    -227.800
  C     -200.868     791.008    -227.874
  O     -200.585     790.302    -226.909
  N     -200.161     790.918    -229.053
  C     -200.456     791.676    -230.056
  N     -199.711     791.536    -231.189
  C     -201.552     792.676    -230.012
  C     -202.232     792.754    -228.873
  O     -206.703     796.144    -228.253
  O     -204.919     796.486    -230.119
  H     -201.792     793.256    -223.552
  H     -206.409     796.939    -227.743
  H     -201.760     793.291    -230.874
  H     -203.047     793.453    -228.760
  H     -202.730     791.026    -226.096
  H     -200.812     792.984    -225.580
  H     -202.162     794.678    -226.740
  H     -204.462     793.596    -224.963
  H     -198.941     790.895    -231.163
  H     -205.945     794.417    -226.745
  H     -199.782     792.173    -231.965
  H     -204.975     795.751    -226.056
  P     -201.188     796.295    -224.913
  C     -202.196     798.372    -226.153
  O     -201.863     797.750    -224.894
  O     -200.742     796.121    -226.434
  O     -200.043     796.114    -223.959
  H     -199.776     796.263    -226.534
  H     -202.635     799.331    -225.972
  H     -202.892     797.755    -226.682
  H     -201.308     798.491    -226.738

 6  7  8  9  10  11  12  13  14  15  16  26  30  31  32  33  35 0
 6-311+G(2d,p)
 ****
 37  38 0
 6-311+G(2d,p)
 ****
 1  2  3  4  5  17  18  19  20  21  22  23  24  25 0
 3-21G
 ****
 27  28  29  34  36  39  40  41  42  43  44  45  46 0
 3-21G
 ****


