%nproc=1
%NoSave
%Mem=1900MB
#P OB98/GEN NMR

erre ene a

0 1
  C      619.311    -775.564     123.843
  O      618.479    -775.849     124.951
  H      618.824    -775.942     122.940
  H      620.278    -776.063     123.952
  H      619.453    -774.484     123.734
  P      618.973    -775.392     126.413
  C      616.501    -775.400     127.194
  O      617.813    -775.918     127.394
  C      615.676    -775.565     128.469
  O      615.263    -776.932     128.663
  C      616.402    -775.192     129.762
  O      616.581    -773.796     129.945
  C      615.456    -775.800     130.784
  O      614.289    -774.959     130.918
  C      615.105    -777.139     130.096
  N      615.941    -778.247     130.552
  C      615.291    -779.288     131.231
  O      614.078    -779.247     131.430
  N      616.046    -780.332     131.706
  C      617.338    -780.336     131.546
  N      618.036    -781.402     132.049
  C      618.060    -779.244     130.855
  C      617.311    -778.252     130.389
  O      619.344    -773.954     126.561
  O      620.171    -776.401     126.761
  H      614.573    -774.166     131.408
  H      620.520    -776.155     127.653
  H      619.137    -779.283     130.771
  H      617.772    -777.414     129.874
  H      614.044    -777.401     130.268
  H      615.898    -775.903     131.771
  H      617.365    -775.718     129.825
  H      614.759    -774.967     128.341
  H      617.507    -782.126     132.508
  H      616.047    -775.939     126.359
  H      619.042    -781.446     132.033
  H      616.556    -774.334     126.950
  P      617.961    -773.315     130.616
  C      617.502    -770.933     129.621
  O      617.865    -771.723     130.764
  O      619.032    -773.543     129.449
  O      618.324    -774.035     131.883
  H      619.512    -774.388     129.582
  H      617.485    -769.898     129.893
  H      616.532    -771.227     129.278
  H      618.218    -771.085     128.841

 6  7  8  9  10  11  12  13  14  15  16  26  30  31  32  33  35 0
 6-311+G(2d,p)
 ****
 37  38 0
 6-311+G(2d,p)
 ****
 1  2  3  4  5  17  18  19  20  21  22  23  24  25 0
 3-21G
 ****
 27  28  29  34  36  39  40  41  42  43  44  45  46 0
 3-21G
 ****


