%nproc=1
%NoSave
%Mem=1900MB
#P OB98/GEN NMR

erre ene a

0 1
  C      178.361    -129.618     100.825
  O      178.595    -129.401     102.201
  H      177.286    -129.556     100.638
  H      178.710    -130.614     100.541
  H      178.869    -128.859     100.226
  P      180.127    -129.361     102.679
  C      180.075    -131.435     104.235
  O      180.538    -130.879     103.012
  C      181.237    -132.010     105.041
  O      181.966    -132.959     104.205
  C      182.248    -130.961     105.532
  O      182.736    -131.380     106.813
  C      183.383    -131.090     104.529
  O      184.620    -130.590     105.033
  C      183.359    -132.597     104.285
  N      187.697    -134.493     102.583
  C      187.252    -134.291     103.875
  N      188.092    -134.647     104.870
  N      186.085    -133.782     104.167
  C      185.334    -133.502     103.073
  C      185.658    -133.650     101.746
  C      186.967    -134.190     101.436
  O      187.423    -134.375     100.313
  N      184.637    -133.223     100.937
  C      183.696    -132.819     101.773
  N      184.074    -132.968     103.080
  O      180.026    -128.672     104.120
  O      181.061    -128.631     101.774
  H      185.279    -130.634     104.311
  H      180.163    -127.709     104.044
  H      188.610    -134.877     102.413
  H      182.736    -132.412     101.488
  H      183.813    -133.161     105.110
  H      183.141    -130.540     103.611
  H      188.985    -135.089     104.722
  H      181.847    -129.945     105.601
  H      187.766    -134.547     105.824
  H      180.829    -132.582     105.882
  H      179.360    -132.235     104.013
  H      179.567    -130.656     104.815
  P      181.906    -130.945     108.112
  C      183.507    -128.945     108.561
  O      182.171    -129.385     108.373
  O      182.719    -131.644     109.302
  O      180.475    -131.369     108.097
  H      182.118    -131.830     110.049
  H      183.515    -127.887     108.722
  H      184.085    -129.177     107.691
  H      183.929    -129.439     109.411

 6  7  8  9  10  11  12  13  14  15  26  29  33  34 0
 6-311+G(2d,p)
 ****
 36  38  39  40  41 0
 6-311+G(2d,p)
 ****
 1  2  3  4  5  16  17  18  19  20  21  22  23  24  25 0
 3-21G
 ****
 27  28  30  31  32  35  37  42  43  44  45  46  47 0
 3-21G
 ****
 48  49 0
 3-21G
 ****


