%nproc=1
%NoSave
%Mem=1900MB
#P OB98/GEN NMR

erre ene a

0 1
  C     -334.325      86.942    -312.018
  O     -334.611      86.653    -310.663
  P     -333.480      86.035    -309.713
  C     -334.188      87.577    -307.784
  O     -333.935      86.236    -308.189
  C     -335.120      87.602    -306.572
  O     -336.468      87.238    -306.953
  C     -334.739      86.619    -305.477
  O     -333.593      87.041    -304.760
  C     -336.027      86.577    -304.665
  O     -336.110      87.706    -303.780
  C     -337.096      86.680    -305.773
  N     -337.726      85.400    -306.060
  C     -338.438      84.813    -305.010
  O     -338.444      85.333    -303.892
  N     -339.115      83.647    -305.250
  C     -338.994      83.054    -306.397
  N     -339.739      81.930    -306.598
  C     -338.120      83.557    -307.478
  C     -337.540      84.735    -307.252
  O     -332.086      86.480    -310.011
  O     -333.622      84.453    -309.916
  H     -332.740      84.078    -310.110
  H     -335.402      87.588    -303.116
  H     -337.999      82.990    -308.390
  H     -336.897      85.195    -307.995
  H     -337.875      87.396    -305.483
  H     -336.100      85.677    -304.047
  H     -334.552      85.631    -305.915
  H     -335.138      88.628    -306.179
  H     -340.338      81.629    -305.843
  H     -334.650      88.115    -308.617
  H     -339.964      81.589    -307.531
  H     -333.236      88.063    -307.544
  P     -333.044      86.046    -303.626
  C     -330.694      87.123    -303.466
  O     -331.909      86.828    -302.809
  O     -332.227      84.950    -304.460
  O     -334.109      85.413    -302.790
  H     -332.337      84.072    -304.046
  H     -330.191      87.931    -302.928
  H     -330.865      87.439    -304.499
  H     -330.048      86.238    -303.458
  H     -335.197      87.345    -312.488
  H     -334.032      86.044    -312.520
  H     -333.529      87.655    -312.070

 3  4  5  6  7  8  9  10  11  12  13  24  27  28  29  30  32 0
 6-311+G(2d,p)
 ****
 34  35 0
 6-311+G(2d,p)
 ****
 1  2  14  15  16  17  18  19  20  21  22  23  25  26 0
 3-21G
 ****
 31  33  36  37  38  39  40  41  42  43  44  45  46 0
 3-21G
 ****


