%nproc=1
%NoSave
%Mem=1900MB
#P OB98/GEN NMR

erre ene a

0 1
  C     -134.746    -303.340     198.345
  O     -133.448    -303.906     198.271
  P     -132.665    -304.340     199.594
  C     -131.068    -302.253     199.609
  O     -132.047    -303.034     200.266
  C     -129.948    -301.917     200.604
  O     -130.343    -300.807     201.439
  C     -129.632    -303.103     201.512
  O     -128.548    -303.857     200.991
  C     -129.318    -302.430     202.838
  O     -127.962    -301.951     202.849
  C     -130.308    -301.243     202.826
  N     -131.703    -301.492     203.258
  C     -131.948    -302.007     204.530
  O     -131.066    -302.241     205.353
  N     -133.264    -302.268     204.820
  C     -134.326    -302.028     203.999
  O     -135.452    -302.482     204.164
  C     -134.029    -301.244     202.794
  C     -132.752    -301.039     202.472
  O     -131.382    -305.101     199.021
  O     -133.437    -305.187     200.549
  H     -127.377    -302.727     202.774
  H     -131.515    -306.069     199.042
  H     -133.430    -302.766     205.686
  H     -134.859    -300.910     202.181
  H     -132.506    -300.489     201.563
  H     -129.931    -300.410     203.429
  H     -129.397    -303.134     203.666
  H     -130.526    -303.733     201.644
  H     -129.052    -301.617     200.042
  H     -131.518    -301.333     199.219
  H     -130.660    -302.803     198.752
  P     -128.413    -305.409     201.362
  C     -126.014    -305.267     202.245
  O     -127.371    -305.459     202.578
  O     -128.119    -306.322     200.222
  O     -129.827    -305.744     202.040
  H     -130.421    -306.164     201.382
  H     -125.433    -305.143     203.162
  H     -125.892    -304.366     201.628
  H     -125.631    -306.135     201.701
  H     -135.096    -303.119     197.358
  H     -134.710    -302.439     198.920
  H     -135.412    -304.035     198.812

 3  4  5  6  7  8  9  10  11  12  13  23  28  29  30  31  32 0
 6-311+G(2d,p)
 ****
 33  34 0
 6-311+G(2d,p)
 ****
 1  2  14  15  16  17  18  19  20  21  22  24  25  26  27 0
 3-21G
 ****
 35  36  37  38  39  40  41  42  43  44  45 0
 3-21G
 ****


