%nproc=1
%NoSave
%Mem=1900MB
#P OB98/GEN NMR

erre ene a

0 1
  C      -13.986     -13.098      45.271
  O      -12.883     -13.342      46.117
  H      -14.904     -13.279      45.834
  H      -13.965     -13.772      44.411
  H      -13.983     -12.058      44.931
  P      -11.403     -13.209      45.515
  C      -11.018     -10.656      45.465
  O      -10.762     -11.880      46.147
  C      -10.579      -9.468      46.329
  O      -11.417      -9.448      47.510
  C       -9.114      -9.576      46.776
  O       -8.352      -8.409      46.472
  C       -9.227      -9.997      48.236
  O       -8.124      -9.628      49.038
  C      -10.567      -9.393      48.671
  N      -11.189     -10.086      49.798
  C      -10.670      -9.837      51.066
  O       -9.740      -9.073      51.312
  N      -11.276     -10.513      52.095
  C      -12.307     -11.397      51.982
  O      -12.810     -11.969      52.942
  C      -12.792     -11.639      50.614
  C      -12.220     -10.985      49.602
  O      -11.302     -13.304      44.030
  O      -10.583     -14.380      46.236
  H       -8.177      -8.658      49.174
  H      -10.436     -15.111      45.605
  H      -10.919     -10.329      53.020
  H      -13.602     -12.345      50.487
  H      -12.555     -11.138      48.580
  H      -10.442      -8.347      48.954
  H       -9.301     -11.091      48.276
  H       -8.594     -10.365      46.219
  H      -10.766      -8.541      45.774
  H      -12.092     -10.603      45.262
  H      -10.473     -10.645      44.514
  P       -8.201      -7.764      45.022
  C      -10.158      -6.018      44.822
  O       -8.780      -6.274      45.062
  O       -8.629      -8.621      43.879
  O       -6.612      -7.523      44.877
  H       -6.404      -7.631      43.926
  H      -10.343      -4.967      44.893
  H      -10.749      -6.534      45.550
  H      -10.419      -6.360      43.842

 6  7  8  9  10  11  12  13  14  15  16  26  31  32  33  34  35 0
 6-311+G(2d,p)
 ****
 36  37 0
 6-311+G(2d,p)
 ****
 1  2  3  4  5  17  18  19  20  21  22  23  24  25 0
 3-21G
 ****
 27  28  29  30  38  39  40  41  42  43  44  45 0
 3-21G
 ****


