%nproc=1
%NoSave
%Mem=1900MB
#P OB98/GEN NMR

erre ene a

0 1
  C      -28.533    -119.848     211.148
  O      -27.256    -120.342     211.496
  H      -28.581    -118.768     211.311
  H      -28.713    -120.055     210.090
  H      -29.303    -120.349     211.742
  P      -26.758    -120.040     212.991
  C      -25.636    -122.318     213.507
  O      -25.449    -120.939     213.226
  C      -24.421    -123.116     213.050
  O      -24.480    -123.347     211.628
  C      -23.081    -122.432     213.292
  O      -22.659    -122.551     214.643
  C      -22.186    -123.228     212.353
  O      -21.812    -124.470     212.977
  C      -23.114    -123.499     211.159
  N      -20.335    -122.585     206.939
  C      -20.289    -123.585     207.849
  N      -21.049    -123.757     208.950
  C      -21.949    -122.767     209.068
  C      -22.115    -121.684     208.220
  C      -21.251    -121.607     207.114
  N      -21.295    -120.576     206.201
  N      -23.147    -120.881     208.650
  C      -23.600    -121.465     209.740
  N      -22.904    -122.607     210.037
  O      -27.865    -120.754     213.905
  O      -26.615    -118.595     213.337
  H      -21.263    -124.240     213.750
  H      -28.006    -120.219     214.708
  H      -19.542    -124.353     207.667
  H      -24.429    -121.104     210.338
  H      -23.016    -124.529     210.799
  H      -21.264    -122.704     212.090
  H      -23.104    -121.385     212.968
  H      -24.453    -124.094     213.549
  H      -26.523    -122.681     212.976
  H      -20.793    -120.676     205.335
  H      -21.992    -119.850     206.337
  H      -25.791    -122.441     214.583
  P      -21.666    -121.422     215.211
  C      -22.321    -121.724     217.703
  O      -21.314    -121.874     216.709
  O      -22.634    -120.165     215.424
  O      -20.511    -121.093     214.328
  H      -22.116    -119.337     215.379
  H      -21.945    -122.064     218.645
  H      -23.179    -122.302     217.431
  H      -22.596    -120.693     217.780

 6  7  8  9  10  11  12  13  14  15  25  28  32  33  34  35 0
 6-311+G(2d,p)
 ****
 36  39  40 0
 6-311+G(2d,p)
 ****
 1  2  3  4  5  16  17  18  19  20  21  22  23  24 0
 3-21G
 ****
 26  27  29  30  31  37  38  41  42  43  44  45  46  47  48 0
 3-21G
 ****


