%nproc=1
%NoSave
%Mem=1900MB
#P OB98/GEN NMR

erre ene a

0 1
  C     -866.757     -67.391    -648.349
  O     -867.304     -67.541    -647.055
  H     -867.550     -67.103    -649.034
  H     -866.324     -68.340    -648.690
  H     -865.990     -66.613    -648.353
  P     -866.339     -68.008    -645.852
  C     -865.859     -70.242    -644.652
  O     -866.554     -69.596    -645.712
  C     -864.975     -71.360    -645.210
  O     -865.763     -72.314    -645.953
  C     -863.875     -70.877    -646.161
  O     -862.765     -70.387    -645.415
  C     -863.563     -72.179    -646.896
  O     -862.757     -73.021    -646.049
  C     -864.963     -72.775    -647.071
  N     -867.377     -74.509    -651.195
  C     -866.717     -75.201    -650.195
  N     -866.656     -76.552    -650.344
  N     -866.136     -74.634    -649.166
  C     -866.231     -73.288    -649.195
  C     -866.846     -72.484    -650.125
  C     -867.536     -73.132    -651.231
  O     -868.169     -72.547    -652.126
  N     -866.650     -71.149    -649.876
  C     -865.948     -71.138    -648.764
  N     -865.656     -72.414    -648.309
  O     -866.483     -67.261    -644.567
  O     -864.871     -67.892    -646.469
  H     -863.257     -73.137    -645.209
  H     -864.475     -67.010    -646.275
  H     -867.799     -75.010    -651.971
  H     -865.619     -70.252    -648.230
  H     -864.951     -73.868    -647.027
  H     -863.007     -72.003    -647.827
  H     -866.937     -77.026    -651.183
  H     -864.255     -70.137    -646.868
  H     -866.107     -77.067    -649.673
  H     -864.543     -71.901    -644.352
  H     -866.603     -70.651    -643.957
  H     -865.239     -69.518    -644.108
  P     -861.786     -69.268    -646.034
  C     -859.456     -69.355    -647.149
  O     -860.626     -70.074    -646.793
  O     -861.302     -68.246    -645.036
  O     -862.628     -68.624    -647.249
  H     -863.240     -67.923    -646.964
  H     -858.771     -70.011    -647.645
  H     -858.997     -68.961    -646.266
  H     -859.717     -68.550    -647.804

 6  7  8  9  10  11  12  13  14  15  26  29  33  34 0
 6-311+G(2d,p)
 ****
 36  38  39  40  41 0
 6-311+G(2d,p)
 ****
 1  2  3  4  5  16  17  18  19  20  21  22  23  24  25 0
 3-21G
 ****
 27  28  30  31  32  35  37  42  43  44  45  46  47 0
 3-21G
 ****
 48  49 0
 3-21G
 ****


