%nproc=1
%NoSave
%Mem=1900MB
#P OB98/GEN NMR

erre ene a

0 1
  C      -34.063    -362.316      53.383
  O      -34.944    -361.472      54.097
  H      -34.424    -362.410      52.355
  H      -34.047    -363.308      53.839
  H      -33.052    -361.901      53.362
  P      -34.509    -360.949      55.547
  C      -34.504    -358.370      55.557
  O      -35.263    -359.550      55.774
  C      -34.445    -358.031      54.065
  O      -35.811    -357.944      53.555
  C      -33.754    -356.689      53.752
  O      -33.113    -356.824      52.478
  C      -34.949    -355.759      53.666
  O      -34.615    -354.529      53.077
  C      -35.929    -356.659      52.909
  N      -37.303    -356.176      52.931
  C      -37.665    -355.236      51.973
  O      -36.904    -354.815      51.102
  N      -38.954    -354.776      52.047
  C      -39.886    -355.152      52.969
  O      -41.033    -354.724      52.977
  C      -39.434    -356.125      53.976
  C      -38.182    -356.586      53.910
  O      -33.044    -360.928      55.817
  O      -35.278    -361.934      56.550
  H      -34.671    -362.639      56.844
  H      -35.390    -353.927      53.075
  H      -39.233    -354.094      51.358
  H      -40.144    -356.428      54.734
  H      -37.814    -357.304      54.637
  H      -35.610    -356.791      51.870
  H      -35.327    -355.532      54.668
  H      -33.015    -356.403      54.506
  H      -33.961    -358.858      53.532
  H      -33.493    -358.537      55.939
  H      -34.959    -357.541      56.110
  P      -31.681    -357.523      52.281
  C      -32.347    -359.026      50.295
  O      -31.512    -357.968      50.748
  O      -31.415    -358.627      53.253
  O      -30.605    -356.349      52.459
  H      -29.811    -356.706      52.901
  H      -32.140    -359.227      49.265
  H      -33.373    -358.742      50.404
  H      -32.156    -359.904      50.875

 6  7  8  9  10  11  12  13  14  15  16  27  31  32  33  34  35 0
 6-311+G(2d,p)
 ****
 36  37 0
 6-311+G(2d,p)
 ****
 1  2  3  4  5  17  18  19  20  21  22  23  24  25 0
 3-21G
 ****
 26  28  29  30  38  39  40  41  42  43  44  45 0
 3-21G
 ****


