%nproc=1
%NoSave
%Mem=1900MB
#P OB98/GEN NMR

erre ene a

0 1
  C        3.495      56.840      16.103
  O        3.625      55.655      16.885
  P        3.071      55.481      18.371
  C        0.599      54.635      18.155
  O        1.969      54.322      18.359
  C       -0.338      53.916      19.141
  O       -1.685      54.438      18.995
  C       -0.414      52.424      18.818
  O        0.580      51.540      19.300
  C       -1.834      52.021      19.188
  O       -1.928      51.498      20.514
  C       -2.612      53.335      19.078
  N       -6.928      51.561      16.983
  C       -6.317      51.194      18.165
  N       -6.899      50.193      18.859
  N       -5.225      51.748      18.617
  C       -4.700      52.674      17.784
  C       -5.201      53.108      16.579
  C       -6.445      52.530      16.114
  O       -7.034      52.827      15.081
  N       -4.383      54.046      16.003
  C       -3.378      54.161      16.845
  N       -3.527      53.352      17.948
  O        2.716      56.745      19.079
  O        4.315      54.816      19.154
  H       -2.871      51.385      20.726
  H        4.274      55.148      20.074
  H       -7.783      51.118      16.694
  H       -2.525      54.815      16.709
  H       -3.222      53.510      19.972
  H       -2.199      51.233      18.518
  H       -7.670      49.647      18.507
  H       -0.361      52.331      17.725
  H       -6.341      49.776      19.606
  H       -0.048      54.121      20.174
  H        0.360      54.354      17.126
  H        0.448      55.713      18.225
  P        1.557      50.637      18.411
  C        2.962      52.053      16.803
  O        2.874      51.492      18.101
  O        0.836      50.576      16.984
  O        1.805      49.263      18.940
  H        1.204      49.850      16.447
  H        4.000      52.334      16.608
  H        2.335      52.946      16.747
  H        2.641      51.333      16.044
  H        3.953      56.689      15.148
  H        3.977      57.653      16.605
  H        2.458      57.067      15.970

 3  4  5  6  7  8  9  10  11  12  23  26  30  31 0
 6-311+G(2d,p)
 ****
 33  35  36  37  38 0
 6-311+G(2d,p)
 ****
 1  2  13  14  15  16  17  18  19  20  21  22  24  25 0
 3-21G
 ****
 27  28  29  32  34  39  40  41  42  43  44  45  46  47  48  49 0
 3-21G
 ****


