%nproc=1
%NoSave
%Mem=1900MB
#P OB98/GEN NMR

erre ene a

0 1
  C      621.847    -584.454      84.741
  O      621.237    -583.225      84.378
  P      621.680    -582.548      82.987
  C      619.896    -580.626      83.262
  O      621.259    -581.005      83.096
  C      619.798    -579.119      83.497
  O      620.435    -578.408      82.423
  C      618.370    -578.582      83.553
  O      617.746    -578.870      84.798
  C      618.605    -577.112      83.289
  O      619.026    -576.433      84.491
  C      619.748    -577.142      82.258
  N      619.300    -576.959      80.876
  C      619.028    -575.649      80.493
  O      619.149    -574.681      81.246
  N      618.589    -575.490      79.203
  C      618.337    -576.486      78.310
  O      617.906    -576.294      77.178
  C      618.614    -577.850      78.787
  C      619.073    -578.020      80.026
  O      620.607    -583.197      81.995
  O      623.100    -582.815      82.631
  H      619.779    -583.428      82.459
  H      618.308    -576.555      85.143
  H      618.400    -574.543      78.896
  H      618.419    -578.674      78.104
  H      619.279    -579.023      80.399
  H      620.493    -576.367      82.491
  H      617.690    -576.590      82.933
  H      617.774    -579.017      82.749
  H      620.335    -578.878      84.433
  H      619.473    -581.162      84.121
  H      619.343    -580.915      82.360
  P      616.288    -579.556      84.730
  C      616.494    -579.868      87.328
  O      615.688    -579.492      86.214
  O      616.678    -581.096      84.515
  O      615.410    -578.987      83.656
  H      617.434    -581.376      85.079
  H      616.062    -579.425      88.224
  H      617.518    -579.504      87.207
  H      616.497    -580.956      87.420
  H      621.457    -584.781      85.682
  H      622.905    -584.317      84.821
  H      621.639    -585.190      83.993

 3  4  5  6  7  8  9  10  11  12  13  24  28  29  30  31  32 0
 6-311+G(2d,p)
 ****
 33  34 0
 6-311+G(2d,p)
 ****
 1  2  14  15  16  17  18  19  20  21  22  23  25  26  27 0
 3-21G
 ****
 35  36  37  38  39  40  41  42  43  44  45 0
 3-21G
 ****


