%nproc=1
%NoSave
%Mem=1900MB
#P OB98/GEN NMR

erre ene a

0 1
  C      601.840    -177.284     823.435
  O      601.433    -177.881     822.225
  H      601.106    -176.524     823.719
  H      602.810    -176.795     823.305
  H      601.904    -178.028     824.233
  P      602.281    -179.136     821.697
  C      600.349    -180.793     822.229
  O      601.707    -180.433     822.460
  C      600.110    -182.241     822.673
  O      600.503    -182.385     824.057
  C      598.643    -182.673     822.550
  O      598.612    -184.034     822.106
  C      598.128    -182.592     823.977
  O      597.013    -183.453     824.211
  C      599.391    -182.936     824.783
  N      599.309    -182.405     826.143
  C      598.272    -182.890     826.945
  O      597.475    -183.710     826.500
  N      598.131    -182.394     828.217
  C      598.904    -181.427     828.618
  N      598.684    -180.949     829.871
  C      599.958    -180.833     827.777
  C      600.114    -181.372     826.563
  O      603.717    -178.930     822.368
  O      602.362    -179.279     820.214
  H      596.348    -183.291     823.501
  H      604.429    -179.273     821.800
  H      600.559    -180.009     828.145
  H      600.864    -181.001     825.880
  H      599.529    -184.019     824.833
  H      597.804    -181.569     824.188
  H      598.062    -182.053     821.860
  H      600.763    -182.895     822.083
  H      597.935    -181.365     830.419
  H      600.136    -180.711     821.154
  H      599.193    -180.172     830.274
  H      599.691    -180.110     822.780
  P      598.396    -184.286     820.536
  C      600.831    -185.060     820.053
  O      599.811    -184.101     819.805
  O      597.558    -183.005     820.076
  O      597.680    -185.561     820.220
  H      596.640    -183.258     819.877
  H      601.708    -184.800     819.497
  H      600.491    -186.029     819.751
  H      601.062    -185.073     821.098

 6  7  8  9  10  11  12  13  14  15  16  26  30  31  32  33  35 0
 6-311+G(2d,p)
 ****
 37  38 0
 6-311+G(2d,p)
 ****
 1  2  3  4  5  17  18  19  20  21  22  23  24  25 0
 3-21G
 ****
 27  28  29  34  36  39  40  41  42  43  44  45  46 0
 3-21G
 ****


