%nproc=1
%NoSave
%Mem=1900MB
#P OB98/GEN NMR

erre ene a

0 1
  C     -216.820     247.790     594.768
  O     -217.116     248.362     596.017
  H     -217.112     248.487     593.978
  H     -217.387     246.862     594.637
  H     -215.743     247.587     594.683
  P     -216.545     247.684     597.358
  C     -217.498     246.043     599.112
  O     -217.635     246.593     597.799
  C     -218.879     245.668     599.665
  O     -219.696     246.876     599.717
  C     -219.633     244.636     598.796
  O     -220.410     243.795     599.659
  C     -220.544     245.529     597.979
  O     -221.632     244.826     597.433
  C     -220.924     246.584     599.016
  N     -221.492     247.771     598.384
  C     -222.877     247.767     598.165
  O     -223.604     246.820     598.470
  N     -223.384     248.858     597.519
  C     -222.656     249.877     596.976
  O     -223.152     250.803     596.349
  C     -221.199     249.805     597.196
  C     -220.693     248.784     597.875
  O     -216.128     248.625     598.441
  O     -215.337     246.764     596.844
  H     -222.384     245.426     597.284
  H     -214.723     246.575     597.574
  H     -224.381     248.878     597.370
  H     -220.587     250.597     596.773
  H     -219.622     248.683     598.043
  H     -221.624     246.184     599.746
  H     -219.985     245.975     597.150
  H     -218.960     244.019     598.182
  H     -218.764     245.304     600.690
  H     -217.035     246.801     599.750
  H     -216.858     245.155     599.070
  P     -220.087     242.234     599.835
  C     -220.800     239.932     598.937
  O     -221.011     241.337     598.858
  O     -220.094     241.757     601.267
  O     -218.613     242.063     599.222
  H     -218.073     241.515     599.839
  H     -221.457     239.434     598.255
  H     -220.999     239.597     599.933
  H     -219.785     239.709     598.682

 6  7  8  9  10  11  12  13  14  15  16  26  31  32  33  34  35 0
 6-311+G(2d,p)
 ****
 36  37 0
 6-311+G(2d,p)
 ****
 1  2  3  4  5  17  18  19  20  21  22  23  24  25 0
 3-21G
 ****
 27  28  29  30  38  39  40  41  42  43  44  45 0
 3-21G
 ****


