%nproc=1
%NoSave
%Mem=1900MB
#P OB98/GEN NMR

erre ene a

0 1
  C       74.134    -723.272    -430.986
  O       72.912    -722.856    -430.356
  P       71.698    -723.907    -430.315
  C       70.776    -723.691    -432.748
  O       70.582    -723.421    -431.356
  C       69.478    -723.466    -433.526
  O       68.476    -724.438    -433.199
  C       68.825    -722.113    -433.266
  O       69.427    -721.089    -434.036
  C       67.410    -722.368    -433.737
  O       67.345    -722.275    -435.177
  C       67.175    -723.821    -433.286
  N       62.650    -724.407    -430.969
  C       62.984    -724.302    -432.273
  N       64.205    -724.128    -432.817
  C       65.146    -724.085    -431.849
  C       64.951    -724.182    -430.481
  C       63.632    -724.355    -430.042
  N       63.296    -724.474    -428.708
  N       66.155    -724.094    -429.813
  C       67.060    -723.958    -430.762
  N       66.495    -723.940    -432.009
  O       71.016    -723.607    -428.897
  O       72.129    -725.327    -430.438
  H       66.410    -722.337    -435.424
  H       70.669    -724.450    -428.518
  H       62.158    -724.352    -432.979
  H       68.124    -723.860    -430.601
  H       66.594    -724.388    -434.021
  H       66.692    -721.645    -433.338
  H       68.831    -721.875    -432.192
  H       69.699    -723.563    -434.596
  H       71.130    -724.705    -432.886
  H       62.326    -724.618    -428.472
  H       64.033    -724.457    -428.019
  H       71.580    -723.038    -433.123
  P       70.487    -720.127    -433.293
  C       68.852    -718.097    -433.390
  O       70.113    -718.637    -433.768
  O       71.856    -720.440    -434.053
  O       70.582    -720.342    -431.821
  H       72.614    -720.310    -433.445
  H       68.894    -717.008    -433.510
  H       68.640    -718.307    -432.337
  H       68.070    -718.496    -434.027
  H       74.848    -722.477    -430.939
  H       73.942    -723.519    -432.009
  H       74.523    -724.130    -430.479

 3  4  5  6  7  8  9  10  11  12  22  25  29  30  31  32 0
 6-311+G(2d,p)
 ****
 33  36  37 0
 6-311+G(2d,p)
 ****
 1  2  13  14  15  16  17  18  19  20  21  23  24  26 0
 3-21G
 ****
 27  28  34  35  38  39  40  41  42  43  44  45  46  47  48 0
 3-21G
 ****


