%nproc=1
%NoSave
%Mem=1900MB
#P OB98/GEN NMR

erre ene a

0 1
  C     -416.439    -164.766    -307.743
  O     -417.825    -164.975    -307.549
  H     -415.996    -164.448    -306.795
  H     -416.274    -163.984    -308.490
  H     -415.960    -165.697    -308.062
  P     -418.671    -165.415    -308.839
  C     -420.970    -164.241    -309.046
  O     -420.202    -165.239    -308.389
  C     -422.331    -164.081    -308.372
  O     -423.180    -165.198    -308.691
  C     -422.273    -164.014    -306.849
  O     -421.973    -162.692    -306.425
  C     -423.697    -164.403    -306.487
  O     -424.561    -163.259    -306.626
  C     -424.045    -165.454    -307.556
  N     -426.448    -169.735    -306.060
  C     -426.891    -168.471    -306.222
  N     -426.187    -167.372    -306.568
  C     -424.891    -167.676    -306.762
  C     -424.296    -168.923    -306.629
  C     -425.135    -169.989    -306.264
  N     -424.679    -171.279    -306.097
  N     -422.947    -168.854    -306.906
  C     -422.744    -167.599    -307.256
  N     -423.882    -166.839    -307.149
  O     -418.305    -166.731    -309.435
  O     -418.448    -164.150    -309.798
  H     -424.259    -162.594    -305.980
  H     -418.489    -163.323    -309.285
  H     -427.951    -168.321    -306.050
  H     -421.802    -167.198    -307.611
  H     -425.080    -165.351    -307.903
  H     -423.789    -164.746    -305.455
  H     -421.582    -164.754    -306.436
  H     -422.809    -163.182    -308.784
  H     -421.110    -164.505    -310.103
  H     -425.303    -171.933    -305.650
  H     -423.682    -171.434    -306.124
  H     -420.408    -163.303    -308.996
  P     -420.457    -162.224    -306.183
  C     -421.280    -161.384    -303.897
  O     -420.554    -161.066    -305.077
  O     -419.712    -161.877    -307.427
  O     -419.794    -163.433    -305.377
  H     -418.819    -163.366    -305.417
  H     -421.276    -160.541    -303.238
  H     -420.821    -162.219    -303.410
  H     -422.289    -161.631    -304.155

 6  7  8  9  10  11  12  13  14  15  25  28  32  33  34  35 0
 6-311+G(2d,p)
 ****
 36  39  40 0
 6-311+G(2d,p)
 ****
 1  2  3  4  5  16  17  18  19  20  21  22  23  24 0
 3-21G
 ****
 26  27  29  30  31  37  38  41  42  43  44  45  46  47 0
 3-21G
 ****
 48 0
 3-21G
 ****


