%nproc=1
%NoSave
%Mem=1900MB
#P OB98/GEN NMR

erre ene a

0 1
  C     -102.369     142.217      35.830
  O     -101.303     141.425      36.351
  P     -100.350     140.653      35.319
  C     -100.330     138.382      34.091
  O     -101.109     139.332      34.813
  C     -101.099     137.060      33.935
  O     -101.212     136.425      35.236
  C     -102.535     137.205      33.417
  O     -102.751     137.187      32.010
  C     -103.180     135.936      33.973
  O     -102.904     134.826      33.097
  C     -102.471     135.723      35.306
  N     -106.679     134.955      38.113
  C     -106.176     134.303      37.042
  N     -105.050     134.573      36.353
  C     -104.408     135.629      36.879
  C     -104.798     136.388      37.968
  C     -105.997     136.017      38.601
  N     -106.514     136.688      39.685
  N     -103.890     137.398      38.208
  C     -102.978     137.260      37.266
  N     -103.239     136.197      36.445
  O      -98.938     140.455      35.757
  O     -100.413     141.596      34.022
  H     -101.960     134.612      33.208
  H      -99.533     141.611      33.598
  H     -106.758     133.455      36.691
  H     -102.118     137.903      37.139
  H     -102.243     134.667      35.494
  H     -104.268     136.017      34.041
  H     -103.018     138.087      33.853
  H     -100.531     136.389      33.278
  H      -99.392     138.202      34.621
  H     -107.403     136.383      40.051
  H     -106.049     137.517      40.025
  H     -100.070     138.832      33.132
  P     -103.218     138.500      31.221
  C     -105.561     139.390      30.469
  O     -104.820     138.458      31.224
  O     -102.606     138.682      29.876
  O     -102.888     139.668      32.264
  H     -103.445     139.665      33.061
  H     -106.603     139.064      30.432
  H     -105.176     139.459      29.449
  H     -105.516     140.373      30.950
  H     -102.909     142.664      36.638
  H     -103.029     141.597      35.260
  H     -101.969     142.984      35.201

 3  4  5  6  7  8  9  10  11  12  22  25  29  30  31  32 0
 6-311+G(2d,p)
 ****
 33  36  37 0
 6-311+G(2d,p)
 ****
 1  2  13  14  15  16  17  18  19  20  21  23  24  26 0
 3-21G
 ****
 27  28  34  35  38  39  40  41  42  43  44  45  46  47  48 0
 3-21G
 ****


