%nproc=1
%NoSave
%Mem=1900MB
#P OB98/GEN NMR

erre ene a

0 1
  C      196.965    1002.000     149.488
  O      195.557    1001.893     149.530
  P      194.753    1001.430     148.228
  C      194.860     998.935     148.892
  O      194.008    1000.046     148.578
  C      194.293     998.136     150.052
  O      194.451     998.868     151.286
  C      192.807     997.846     149.940
  O      192.562     996.791     149.019
  C      192.454     997.507     151.386
  O      192.797     996.144     151.688
  C      193.361     998.477     152.166
  N      189.809    1000.144     155.435
  C      190.202     998.894     155.070
  N      191.123     998.525     154.158
  C      191.677     999.616     153.592
  C      191.353    1000.958     153.821
  C      190.388    1001.203     154.817
  N      190.040    1002.468     155.243
  N      192.102    1001.774     152.999
  C      192.850    1000.961     152.281
  N      192.659     999.649     152.639
  O      195.540    1001.417     146.951
  O      193.539    1002.470     148.140
  H      192.427     995.586     150.962
  H      193.586    1002.953     147.296
  H      189.694     998.083     155.593
  H      193.537    1001.260     151.489
  H      193.815     998.000     153.033
  H      191.394     997.633     151.607
  H      192.261     998.746     149.645
  H      194.863     997.198     150.145
  H      195.859     999.316     149.138
  H      189.450    1002.541     156.046
  H      190.664    1003.252     155.010
  H      194.946     998.298     147.992
  P      191.204     996.788     148.163
  C      192.071     997.721     145.942
  O      191.643     996.571     146.636
  O      190.281     997.918     148.412
  O      190.533     995.371     148.535
  H      189.561     995.459     148.493
  H      191.204     998.321     145.622
  H      192.614     997.407     145.026
  H      192.745     998.323     146.557
  H      197.327    1002.320     150.443
  H      197.246    1002.714     148.742
  H      197.388    1001.047     149.247

 3  4  5  6  7  8  9  10  11  12  22  25  29  30  31  32 0
 6-311+G(2d,p)
 ****
 33  36  37 0
 6-311+G(2d,p)
 ****
 1  2  13  14  15  16  17  18  19  20  21  23  24  26 0
 3-21G
 ****
 27  28  34  35  38  39  40  41  42  43  44  45  46  47  48 0
 3-21G
 ****


