%nproc=1
%NoSave
%Mem=1900MB
#P OB98/GEN NMR

erre ene a

0 1
  C     -967.096     834.202    2044.082
  O     -967.838     835.414    2043.906
  P     -969.057     835.685    2044.926
  C     -971.100     834.737    2043.628
  O     -970.167     834.552    2044.684
  C     -971.803     833.410    2043.308
  O     -972.123     832.703    2044.541
  C     -973.111     833.584    2042.579
  O     -972.912     833.902    2041.219
  C     -973.748     832.214    2042.806
  O     -973.226     831.263    2041.902
  C     -973.320     831.884    2044.250
  N     -976.231     829.932    2047.969
  C     -975.346     829.391    2047.150
  N     -974.601     829.979    2046.180
  C     -974.878     831.300    2046.114
  C     -975.787     832.018    2046.878
  C     -976.491     831.274    2047.862
  N     -977.439     831.851    2048.679
  N     -975.777     833.333    2046.517
  C     -974.911     833.432    2045.530
  N     -974.354     832.212    2045.262
  O     -969.739     837.042    2044.343
  O     -968.611     835.908    2046.362
  H     -972.252     831.239    2042.000
  H     -969.553     837.786    2044.937
  H     -975.172     828.310    2047.285
  H     -974.698     834.326    2044.978
  H     -973.049     830.857    2044.381
  H     -974.863     832.237    2042.655
  H     -973.736     834.367    2043.059
  H     -971.112     832.791    2042.713
  H     -970.568     835.098    2042.733
  H     -977.963     831.257    2049.294
  H     -977.678     832.822    2048.563
  H     -971.817     835.509    2043.929
  P     -973.166     835.434    2040.760
  C     -975.661     835.060    2040.242
  O     -974.709     835.684    2041.109
  O     -973.194     835.292    2039.146
  O     -972.214     836.442    2041.316
  H     -973.715     834.521    2038.870
  H     -976.690     835.269    2040.615
  H     -975.502     833.945    2040.243
  H     -975.579     835.448    2039.220
  H     -966.322     834.147    2043.345
  H     -967.752     833.363    2043.973
  H     -966.660     834.190    2045.059

 3  4  5  6  7  8  9  10  11  12  22  25  29  30  31  32 0
 6-311+G(2d,p)
 ****
 33  36  37 0
 6-311+G(2d,p)
 ****
 1  2  13  14  15  16  17  18  19  20  21  23  24  26 0
 3-21G
 ****
 27  28  34  35  38  39  40  41  42  43  44  45  46  47  48 0
 3-21G
 ****


