%nproc=1
%NoSave
%Mem=1900MB
#P OB98/GEN NMR

erre ene a

0 1
  C      -76.824     -75.432      77.760
  O      -77.242     -76.335      78.765
  H      -75.773     -75.629      77.528
  H      -76.916     -74.399      78.108
  H      -77.414     -75.571      76.850
  P      -78.755     -76.242      79.284
  C      -78.080     -74.525      81.090
  O      -78.900     -74.796      79.961
  C      -77.489     -73.124      80.983
  O      -76.984     -72.891      79.654
  C      -78.491     -72.006      81.271
  O      -78.645     -71.826      82.668
  C      -77.800     -70.837      80.588
  O      -76.713     -70.368      81.411
  C      -77.253     -71.502      79.314
  N      -79.174     -68.657      75.584
  C      -78.305     -68.316      76.604
  N      -77.931     -67.019      76.659
  N      -77.863     -69.163      77.496
  C      -78.379     -70.404      77.356
  C      -79.258     -70.860      76.398
  C      -79.697     -69.928      75.382
  O      -80.451     -70.191      74.451
  N      -79.607     -72.167      76.617
  C      -78.910     -72.514      77.681
  N      -78.159     -71.474      78.177
  O      -79.228     -77.367      80.155
  O      -79.619     -76.113      77.945
  H      -77.069     -70.267      82.312
  H      -79.915     -76.986      77.629
  H      -79.492     -67.955      74.938
  H      -78.911     -73.500      78.130
  H      -76.308     -71.056      78.984
  H      -78.463     -69.991      80.410
  H      -78.453     -66.291      76.189
  H      -79.449     -72.181      80.773
  H      -77.335     -66.738      77.428
  H      -76.632     -73.068      81.668
  H      -77.284     -75.277      81.108
  H      -78.664     -74.608      82.013
  P      -80.027     -72.191      83.403
  C      -80.349     -69.693      83.976
  O      -80.895     -70.845      83.347
  O      -79.875     -72.779      84.764
  O      -80.791     -73.138      82.370
  H      -80.571     -74.097      82.475
  H      -81.026     -68.871      83.865
  H      -79.412     -69.448      83.520
  H      -80.198     -69.892      85.016

 6  7  8  9  10  11  12  13  14  15  26  29  33  34 0
 6-311+G(2d,p)
 ****
 36  38  39  40  41 0
 6-311+G(2d,p)
 ****
 1  2  3  4  5  16  17  18  19  20  21  22  23  24  25 0
 3-21G
 ****
 27  28  30  31  32  35  37  42  43  44  45  46  47 0
 3-21G
 ****
 48  49 0
 3-21G
 ****


