%nproc=1
%NoSave
%Mem=1900MB
#P OB98/GEN NMR

erre ene a

0 1
  C     -516.423      89.393     440.943
  O     -516.070      90.209     439.817
  P     -516.057      91.794     440.070
  C     -518.554      92.282     439.549
  O     -517.528      92.242     440.538
  C     -519.848      92.891     440.087
  O     -519.604      94.221     440.642
  C     -520.949      93.045     439.032
  O     -522.204      92.831     439.690
  C     -520.850      94.504     438.643
  O     -522.039      94.971     438.014
  C     -520.554      95.125     440.014
  N     -521.754     100.037     440.093
  C     -522.570      98.909     440.087
  N     -523.885      99.138     440.156
  N     -522.118      97.680     440.013
  C     -520.759      97.616     439.990
  C     -519.845      98.637     440.005
  C     -520.353      99.996     440.053
  O     -519.678     101.020     440.067
  N     -518.551      98.168     439.980
  C     -518.690      96.848     439.891
  N     -520.010      96.468     439.944
  O     -515.911      92.408     438.596
  O     -514.944      92.250     440.965
  H     -522.801      94.684     438.565
  H     -514.987      92.665     438.434
  H     -522.155     100.945     440.135
  H     -517.895      96.142     439.824
  H     -521.457      95.176     440.651
  H     -520.001      94.659     437.953
  H     -524.302     100.058     440.271
  H     -520.856      92.363     438.172
  H     -524.518      98.336     440.208
  H     -520.206      92.252     440.911
  H     -518.756      91.263     439.191
  H     -518.181      92.837     438.677
  P     -523.135      91.616     439.179
  C     -524.891      93.078     437.926
  O     -523.839      92.118     437.831
  O     -524.334      91.613     440.235
  O     -522.451      90.294     439.114
  H     -524.589      90.691     440.437
  H     -524.919      93.632     436.978
  H     -524.703      93.776     438.752
  H     -525.828      92.558     438.073
  H     -516.398      88.362     440.658
  H     -517.408      89.648     441.274
  H     -515.726      89.560     441.737

 3  4  5  6  7  8  9  10  11  12  23  26  30  31 0
 6-311+G(2d,p)
 ****
 33  35  36  37  38 0
 6-311+G(2d,p)
 ****
 1  2  13  14  15  16  17  18  19  20  21  22  24  25 0
 3-21G
 ****
 27  28  29  32  34  39  40  41  42  43  44  45  46  47  48  49 0
 3-21G
 ****


