%nproc=1
%NoSave
%Mem=1900MB
#P OB98/GEN NMR

erre ene a

0 1
  C      805.426    -706.156    1593.742
  O      806.404    -705.338    1594.338
  H      804.964    -705.622    1592.914
  H      804.649    -706.423    1594.465
  H      805.893    -707.079    1593.350
  P      807.180    -705.940    1595.607
  C      806.352    -706.600    1597.980
  O      806.131    -705.808    1596.816
  C      806.185    -705.737    1599.237
  O      805.020    -704.887    1599.107
  C      805.957    -706.551    1600.513
  O      807.208    -706.963    1601.064
  C      805.290    -705.511    1601.411
  O      806.285    -704.641    1601.977
  C      804.406    -704.729    1600.408
  N      799.834    -704.514    1602.701
  C      801.064    -704.142    1603.130
  N      802.252    -704.278    1602.482
  C      802.074    -704.848    1601.282
  C      800.866    -705.273    1600.723
  C      799.704    -705.067    1601.487
  N      798.450    -705.453    1601.048
  N      801.080    -705.824    1599.474
  C      802.376    -705.682    1599.262
  N      803.023    -705.122    1600.337
  O      808.551    -705.397    1595.856
  O      807.125    -707.520    1595.282
  H      806.881    -705.213    1602.518
  H      806.255    -707.762    1594.910
  H      801.096    -703.679    1604.109
  H      802.884    -705.926    1598.326
  H      804.427    -703.635    1600.631
  H      804.737    -705.963    1602.242
  H      805.267    -707.382    1600.358
  H      807.057    -705.093    1599.349
  H      807.367    -707.008    1597.952
  H      797.704    -705.464    1601.727
  H      798.390    -705.984    1600.200
  H      805.644    -707.423    1597.965
  P      807.299    -708.200    1602.081
  C      806.145    -708.796    1604.301
  O      806.229    -707.855    1603.238
  O      808.678    -708.512    1602.558
  O      806.602    -709.416    1601.297
  H      806.825    -710.273    1601.719
  H      805.410    -708.471    1605.008
  H      807.096    -708.873    1604.785
  H      805.866    -709.752    1603.910

 6  7  8  9  10  11  12  13  14  15  25  28  32  33  34  35 0
 6-311+G(2d,p)
 ****
 36  39  40 0
 6-311+G(2d,p)
 ****
 1  2  3  4  5  16  17  18  19  20  21  22  23  24 0
 3-21G
 ****
 26  27  29  30  31  37  38  41  42  43  44  45  46  47 0
 3-21G
 ****
 48 0
 3-21G
 ****


