%nproc=1
%NoSave
%Mem=1900MB
#P OB98/GEN NMR

erre ene a

0 1
  C     -978.089     569.761    -598.870
  O     -978.082     569.294    -600.204
  H     -978.409     570.810    -598.876
  H     -977.086     569.708    -598.443
  H     -978.788     569.185    -598.263
  P     -977.739     567.745    -600.474
  C     -979.513     567.067    -602.213
  O     -979.129     567.028    -600.848
  C     -980.626     568.095    -602.426
  O     -980.173     569.394    -601.950
  C     -981.039     568.256    -603.890
  O     -982.455     568.450    -603.952
  C     -980.335     569.530    -604.325
  O     -981.005     570.185    -605.400
  C     -980.319     570.340    -603.027
  N     -979.256     575.277    -603.205
  C     -980.472     574.622    -603.162
  N     -981.579     575.398    -603.198
  N     -980.599     573.319    -603.097
  C     -979.412     572.668    -603.056
  C     -978.148     573.195    -603.091
  C     -978.021     574.636    -603.180
  O     -976.967     575.261    -603.230
  N     -977.199     572.196    -603.064
  C     -977.891     571.078    -603.003
  N     -979.240     571.309    -603.005
  O     -976.960     567.067    -599.395
  O     -976.949     567.761    -601.859
  H     -980.591     571.066    -605.496
  H     -975.986     567.693    -601.713
  H     -979.214     576.268    -603.272
  H     -977.472     570.087    -602.970
  H     -981.255     570.897    -602.874
  H     -979.315     569.288    -604.650
  H     -981.557     576.402    -603.234
  H     -980.763     567.397    -604.508
  H     -982.487     574.948    -603.144
  H     -981.487     567.809    -601.807
  H     -979.862     566.075    -602.500
  H     -978.643     567.332    -602.826
  P     -983.410     567.172    -604.109
  C     -984.624     567.006    -601.838
  O     -983.583     566.488    -602.663
  O     -983.061     566.234    -605.211
  O     -984.857     567.836    -604.346
  H     -985.380     567.235    -604.906
  H     -984.640     566.475    -600.909
  H     -985.565     566.887    -602.334
  H     -984.448     568.045    -601.652

 6  7  8  9  10  11  12  13  14  15  26  29  33  34 0
 6-311+G(2d,p)
 ****
 36  38  39  40  41 0
 6-311+G(2d,p)
 ****
 1  2  3  4  5  16  17  18  19  20  21  22  23  24  25 0
 3-21G
 ****
 27  28  30  31  32  35  37  42  43  44  45  46  47 0
 3-21G
 ****
 48  49 0
 3-21G
 ****


