%nproc=1
%NoSave
%Mem=1900MB
#P OB98/GEN NMR

erre ene a

0 1
  C     -128.459     -97.560    -204.357
  O     -129.214     -97.511    -205.559
  P     -128.576     -96.737    -206.810
  C     -129.843     -94.567    -206.198
  O     -129.600     -95.558    -207.186
  C     -130.694     -93.435    -206.760
  O     -130.979     -92.485    -205.695
  C     -130.030     -92.655    -207.907
  O     -130.999     -92.417    -208.938
  C     -129.691     -91.317    -207.276
  O     -129.612     -90.276    -208.243
  C     -130.844     -91.177    -206.283
  N     -131.999     -86.466    -204.877
  C     -132.577     -87.265    -205.843
  N     -133.564     -86.704    -206.577
  N     -132.218     -88.499    -206.077
  C     -131.239     -88.939    -205.247
  C     -130.596     -88.247    -204.247
  C     -130.963     -86.862    -204.042
  O     -130.428     -86.075    -203.263
  N     -129.671     -89.036    -203.611
  C     -129.750     -90.199    -204.226
  N     -130.653     -90.175    -205.258
  O     -128.749     -97.788    -208.005
  O     -127.152     -96.331    -206.649
  H     -129.055     -89.571    -207.861
  H     -127.880     -97.970    -208.413
  H     -132.303     -85.517    -204.753
  H     -129.154     -91.070    -203.981
  H     -131.778     -90.941    -206.810
  H     -128.725     -91.394    -206.766
  H     -133.915     -85.772    -206.427
  H     -129.150     -93.148    -208.334
  H     -134.016     -87.283    -207.275
  H     -131.658     -93.850    -207.082
  H     -128.887     -94.160    -205.853
  H     -130.352     -95.034    -205.347
  P     -130.552     -92.819    -210.429
  C     -131.689     -90.572    -211.092
  O     -131.455     -91.930    -211.408
  O     -131.138     -94.297    -210.604
  O     -129.078     -92.755    -210.657
  H     -130.630     -94.787    -211.277
  H     -131.070     -90.229    -210.257
  H     -132.742     -90.446    -210.824
  H     -131.470     -89.960    -211.969
  H     -129.005     -98.104    -203.615
  H     -128.278     -96.565    -204.008
  H     -127.525     -98.048    -204.542

 3  4  5  6  7  8  9  10  11  12  23  26  30  31  33  0
 6-311+G(2d,p)
 ****
 35  36  37  38 0
 6-311+G(2d,p)
 ****
 1  2  13  14  15  16  17  18  19  20  21  22  24  25  27  28  29 0
 3-21G
 ****
 32  34  39  40  41  42  43  44  45  46  47  48  49 0
 3-21G
 ****


