%nproc=1
%NoSave
%Mem=1900MB
#P OB98/GEN NMR

erre ene a

0 1
  C      -92.401     -78.241    -436.814
  O      -93.104     -79.492    -436.842
  P      -92.442     -80.711    -437.645
  C      -93.684     -80.262    -439.886
  O      -92.440     -80.335    -439.203
  C      -93.586     -79.306    -441.076
  O      -92.473     -79.641    -441.937
  C      -94.820     -79.304    -441.969
  O      -95.842     -78.465    -441.458
  C      -94.256     -78.709    -443.250
  O      -94.176     -77.270    -443.127
  C      -92.848     -79.321    -443.299
  N      -91.758     -81.131    -447.897
  C      -91.704     -79.834    -447.418
  N      -91.288     -78.888    -448.282
  N      -92.025     -79.505    -446.190
  C      -92.407     -80.560    -445.432
  C      -92.508     -81.881    -445.796
  C      -92.158     -82.231    -447.159
  O      -92.206     -83.363    -447.648
  N      -92.934     -82.660    -444.755
  C      -93.075     -81.813    -443.752
  N      -92.785     -80.518    -444.117
  O      -93.565     -81.848    -437.552
  O      -91.137     -81.173    -437.087
  H      -93.657     -77.093    -442.318
  H      -93.145     -82.728    -437.602
  H      -91.507     -81.329    -448.852
  H      -93.387     -82.083    -442.752
  H      -92.098     -78.624    -443.694
  H      -94.882     -78.917    -444.119
  H      -90.979     -79.078    -449.219
  H      -95.175     -80.328    -442.150
  H      -91.205     -77.938    -447.932
  H      -93.425     -78.288    -440.685
  H      -94.471     -79.922    -439.201
  H      -93.981     -81.267    -440.199
  P      -97.048     -79.155    -440.650
  C      -98.753     -78.928    -442.593
  O      -98.015     -79.793    -441.757
  O      -97.869     -77.900    -440.091
  O      -96.613     -80.071    -439.549
  H      -98.284     -78.127    -439.235
  H      -99.221     -79.524    -443.384
  H      -98.100     -78.183    -443.059
  H      -99.536     -78.427    -442.018
  H      -92.962     -77.529    -436.245
  H      -92.276     -77.880    -437.813
  H      -91.441     -78.381    -436.363

 3  4  5  6  7  8  9  10  11  12  23  26  30  31 0
 6-311+G(2d,p)
 ****
 33  35  36  37  38 0
 6-311+G(2d,p)
 ****
 1  2  13  14  15  16  17  18  19  20  21  22  24  25 0
 3-21G
 ****
 27  28  29  32  34  39  40  41  42  43  44  45  46  47  48  49 0
 3-21G
 ****


