%nproc=1
%NoSave
%Mem=1900MB
#P OB98/GEN NMR

erre ene a

0 1
  C     -616.803    -622.536    -173.151
  O     -618.008    -621.836    -173.369
  P     -619.367    -622.310    -172.675
  C     -619.997    -620.016    -171.663
  O     -619.551    -621.338    -171.397
  C     -621.542    -619.981    -171.749
  O     -622.120    -620.550    -170.563
  C     -622.099    -618.578    -171.851
  O     -621.954    -618.061    -173.171
  C     -623.560    -618.814    -171.443
  O     -624.333    -619.307    -172.535
  C     -623.396    -619.903    -170.349
  N     -623.501    -619.365    -168.999
  C     -624.805    -619.147    -168.530
  O     -625.765    -619.374    -169.258
  N     -624.981    -618.617    -167.272
  C     -623.928    -618.335    -166.550
  N     -624.169    -617.809    -165.317
  C     -622.538    -618.516    -167.021
  C     -622.407    -619.035    -168.240
  O     -619.450    -623.765    -172.381
  O     -620.499    -621.783    -173.671
  H     -625.230    -619.468    -172.176
  H     -620.542    -622.346    -174.493
  H     -621.697    -618.248    -166.383
  H     -621.420    -619.200    -168.656
  H     -624.144    -620.684    -170.473
  H     -624.040    -617.910    -171.076
  H     -621.611    -617.914    -171.134
  H     -621.834    -620.577    -172.617
  H     -625.137    -617.666    -165.047
  H     -619.566    -619.690    -172.628
  H     -623.421    -617.519    -164.692
  H     -619.634    -619.333    -170.888
  P     -622.301    -616.532    -173.472
  C     -620.045    -615.825    -174.505
  O     -620.944    -615.701    -173.406
  O     -623.435    -615.964    -172.700
  O     -622.632    -616.517    -175.047
  H     -623.435    -615.987    -175.206
  H     -619.344    -615.002    -174.485
  H     -620.594    -615.823    -175.452
  H     -619.479    -616.769    -174.406
  H     -616.013    -622.066    -173.699
  H     -616.913    -623.548    -173.481
  H     -616.568    -622.525    -172.107

 3  4  5  6  7  8  9  10  11  12  13  23  27  28  29  30  32 0
 6-311+G(2d,p)
 ****
 34  35 0
 6-311+G(2d,p)
 ****
 1  2  14  15  16  17  18  19  20  21  22  24  25  26 0
 3-21G
 ****
 31  33  36  37  38  39  40  41  42  43  44  45  46 0
 3-21G
 ****


