%nproc=1
%NoSave
%Mem=1900MB
#P OB98/GEN NMR

erre ene a

0 1
  C      -82.651    -250.018     100.152
  O      -83.247    -250.797      99.136
  H      -81.599    -250.301     100.239
  H      -83.143    -250.191     101.112
  H      -82.703    -248.955      99.894
  P      -84.824    -250.649      98.888
  C      -86.282    -252.633      98.100
  O      -85.221    -251.746      97.788
  C      -86.046    -254.012      97.470
  O      -85.781    -253.841      96.048
  C      -84.848    -254.772      98.068
  O      -85.133    -256.172      97.961
  C      -83.737    -254.377      97.114
  O      -82.611    -255.202      97.262
  C      -84.488    -254.426      95.780
  N      -83.782    -253.732      94.715
  C      -84.467    -253.589      93.506
  O      -85.603    -254.051      93.379
  N      -83.843    -252.957      92.463
  C      -82.618    -252.562      92.590
  N      -82.048    -251.956      91.513
  C      -81.833    -252.746      93.833
  C      -82.474    -253.327      94.846
  O      -85.311    -249.267      98.598
  O      -85.482    -251.229     100.230
  H      -82.414    -255.361      98.215
  H      -85.811    -250.493     100.779
  H      -80.805    -252.416      93.883
  H      -81.981    -253.506      95.797
  H      -84.656    -255.465      95.466
  H      -83.403    -253.353      97.317
  H      -84.649    -254.504      99.109
  H      -86.969    -254.601      97.554
  H      -82.618    -251.859      90.681
  H      -87.205    -252.193      97.704
  H      -81.093    -251.628      91.492
  H      -86.381    -252.739      99.187
  P      -85.252    -257.136      99.234
  C      -84.661    -259.424      98.194
  O      -85.682    -258.604      98.751
  O      -86.098    -256.587     100.338
  O      -83.744    -257.344      99.742
  H      -83.749    -257.473     100.710
  H      -85.076    -260.370      97.914
  H      -83.889    -259.574      98.919
  H      -84.251    -258.945      97.330

 6  7  8  9  10  11  12  13  14  15  16  26  30  31  32  33  35 0
 6-311+G(2d,p)
 ****
 37  38 0
 6-311+G(2d,p)
 ****
 1  2  3  4  5  17  18  19  20  21  22  23  24  25 0
 3-21G
 ****
 27  28  29  34  36  39  40  41  42  43  44  45  46 0
 3-21G
 ****


