%nproc=1
%NoSave
%Mem=1900MB
#P OB98/GEN NMR

erre ene a

0 1
  C      -33.516    -889.490     585.379
  O      -32.246    -890.060     585.656
  H      -33.449    -888.400     585.517
  H      -34.263    -889.890     586.077
  H      -33.812    -889.700     584.345
  P      -32.101    -891.640     585.433
  C      -33.339    -892.190     587.649
  O      -32.141    -892.320     586.891
  C      -33.183    -892.810     589.031
  O      -33.140    -894.270     588.882
  C      -31.896    -892.400     589.775
  O      -32.216    -892.330     591.175
  C      -30.966    -893.580     589.555
  O      -29.935    -893.640     590.529
  C      -31.972    -894.730     589.609
  N      -29.750    -899.100     590.764
  C      -30.214    -898.090     591.572
  N      -30.079    -898.260     592.914
  N      -30.787    -896.990     591.141
  C      -30.890    -896.970     589.775
  C      -30.468    -897.900     588.863
  C      -29.824    -899.100     589.378
  O      -29.365    -900.000     588.694
  N      -30.729    -897.480     587.572
  C      -31.327    -896.300     587.720
  N      -31.437    -895.950     589.036
  O      -30.570    -891.790     584.990
  O      -33.033    -892.240     584.430
  H      -29.293    -894.320     590.230
  H      -30.493    -891.780     584.018
  H      -29.308    -899.910     591.153
  H      -31.673    -895.680     586.912
  H      -32.285    -894.960     590.635
  H      -30.506    -893.510     588.556
  H      -29.708    -899.100     593.335
  H      -31.478    -891.450     589.445
  H      -30.465    -897.550     593.535
  H      -34.090    -892.590     589.625
  H      -34.149    -892.690     587.107
  H      -33.587    -891.130     587.751
  P      -32.677    -890.910     591.775
  C      -30.350    -890.370     592.830
  O      -31.748    -890.580     593.035
  O      -34.104    -891.260     592.458
  O      -32.812    -889.820     590.757
  H      -34.665    -890.480     592.469
  H      -29.879    -890.162     593.768
  H      -30.207    -889.542     592.168
  H      -29.916    -891.249     592.401

 6  7  8  9  10  11  12  13  14  15  26  29  33  34 0
 6-311+G(2d,p)
 ****
 36  38  39  40  41 0
 6-311+G(2d,p)
 ****
 1  2  3  4  5  16  17  18  19  20  21  22  23  24  25 0
 3-21G
 ****
 27  28  30  31  32  35  37  42  43  44  45  46  47 0
 3-21G
 ****
 48  49 0
 3-21G
 ****


