%nproc=1
%NoSave
%Mem=1900MB
#P OB98/GEN NMR

erre ene a

0 1
  C      -96.119      64.201     -50.657
  O      -96.339      64.222     -52.071
  P      -97.547      65.122     -52.618
  C      -98.110      64.076     -54.936
  O      -97.488      65.137     -54.218
  C      -97.114      63.442     -55.907
  O      -96.250      62.511     -55.232
  C      -97.782      62.638     -57.012
  O      -98.296      63.495     -58.012
  C      -96.642      61.748     -57.491
  O      -95.890      62.369     -58.546
  C      -95.773      61.580     -56.222
  N      -95.778      60.219     -55.714
  C      -94.664      59.845     -54.956
  O      -93.742      60.644     -54.770
  N      -94.610      58.571     -54.450
  C      -95.572      57.738     -54.701
  N      -95.462      56.488     -54.178
  C      -96.752      58.085     -55.522
  C      -96.789      59.330     -55.993
  O      -97.109      66.609     -52.218
  O      -98.879      64.766     -52.038
  H      -95.232      61.701     -58.827
  H      -97.892      67.149     -52.017
  H      -97.523      57.353     -55.711
  H      -97.617      59.669     -56.607
  H      -94.733      61.856     -56.434
  H      -97.015      60.799     -57.886
  H      -98.584      62.019     -56.590
  H      -96.499      64.241     -56.347
  H      -94.638      56.284     -53.624
  H      -98.977      64.452     -55.483
  H      -96.148      55.758     -54.318
  H      -98.487      63.337     -54.219
  P      -99.885      63.640     -58.128
  C      -99.862      63.221     -60.661
  O     -100.150      64.143     -59.628
  O     -100.164      64.973     -57.278
  O     -100.713      62.494     -57.653
  H     -101.123      65.119     -57.191
  H     -100.277      63.603     -61.595
  H     -100.312      62.249     -60.448
  H      -98.780      63.117     -60.772
  H      -95.288      63.565     -50.435
  H      -96.994      63.830     -50.165
  H      -95.911      65.193     -50.314

 3  4  5  6  7  8  9  10  11  12  13  21  23  27  28  29  30  32 0
 6-311+G(2d,p)
 ****
 34  35 0
 6-311+G(2d,p)
 ****
 1  2  14  15  16  17  18  19  20  22  24  25  26 0
 3-21G
 ****
 31  33  36  37  38  39  40  41  42  43  44  45  46 0
 3-21G
 ****


