%nproc=1
%NoSave
%Mem=1900MB
#P OB98/GEN NMR

erre ene a

0 1
  C     -903.350     717.753     167.747
  O     -904.467     718.460     168.250
  H     -902.635     718.451     167.304
  H     -902.861     717.233     168.574
  H     -903.663     717.013     167.004
  P     -905.426     719.154     167.168
  C     -907.627     717.885     167.726
  O     -906.551     718.058     166.815
  C     -908.547     716.758     167.253
  O     -909.031     717.079     165.924
  C     -907.852     715.392     167.177
  O     -908.772     714.386     167.608
  C     -907.553     715.224     165.700
  O     -907.437     713.859     165.322
  C     -908.740     715.952     165.070
  N     -907.995     714.415     160.260
  C     -908.377     713.754     161.372
  N     -908.562     714.236     162.613
  C     -908.353     715.568     162.641
  C     -907.960     716.375     161.594
  C     -907.771     715.749     160.349
  N     -907.344     716.413     159.217
  N     -907.811     717.686     162.015
  C     -908.115     717.660     163.302
  N     -908.441     716.398     163.724
  O     -904.505     719.182     165.856
  O     -905.932     720.508     167.522
  H     -907.379     713.810     164.346
  H     -903.879     719.929     165.919
  H     -908.553     712.688     161.245
  H     -908.104     718.511     163.962
  H     -909.634     715.320     165.009
  H     -906.614     715.730     165.452
  H     -906.946     715.344     167.790
  H     -909.423     716.725     167.907
  H     -908.194     718.816     167.794
  H     -907.173     715.872     158.387
  H     -907.107     717.388     159.278
  H     -907.226     717.643     168.717
  P     -908.278     713.415     168.786
  C     -910.374     712.799     170.184
  O     -909.233     713.632     170.058
  O     -906.887     714.056     169.243
  O     -908.104     711.992     168.359
  H     -906.192     713.373     169.282
  H     -910.909     713.059     171.073
  H     -910.065     711.776     170.240
  H     -911.009     712.933     169.334

 6  7  8  9  10  11  12  13  14  15  25  28  32  33  34  35 0
 6-311+G(2d,p)
 ****
 36  39  40 0
 6-311+G(2d,p)
 ****
 1  2  3  4  5  16  17  18  19  20  21  22  23  24 0
 3-21G
 ****
 26  27  29  30  31  37  38  41  42  43  44  45  46  47 0
 3-21G
 ****
 48 0
 3-21G
 ****


