%nproc=1
%NoSave
%Mem=1900MB
#P OB98/GEN NMR

erre ene a

0 1
  C      -16.977     252.363    -679.804
  O      -17.920     251.928    -678.839
  H      -16.647     251.490    -680.380
  H      -16.106     252.805    -679.308
  H      -17.422     253.084    -680.491
  P      -18.643     253.024    -677.923
  C      -20.833     252.682    -679.229
  O      -19.860     253.618    -678.780
  C      -21.911     253.367    -680.066
  O      -21.270     254.219    -681.058
  C      -22.841     252.397    -680.807
  O      -24.165     252.924    -680.793
  C      -22.286     252.406    -682.231
  O      -23.292     252.083    -683.198
  C      -21.776     253.845    -682.352
  N      -20.849     253.768    -687.317
  C      -22.048     253.716    -686.638
  N      -23.165     253.588    -687.384
  N      -22.143     253.760    -685.330
  C      -20.938     253.899    -684.709
  C      -19.681     253.970    -685.280
  C      -19.587     253.899    -686.722
  O      -18.564     253.932    -687.386
  N      -18.707     254.076    -684.319
  C      -19.378     254.073    -683.168
  N      -20.726     253.956    -683.361
  O      -17.746     254.063    -677.328
  O      -19.381     252.156    -676.791
  H      -22.889     252.192    -684.088
  H      -18.866     252.160    -675.961
  H      -20.834     253.716    -688.332
  H      -18.930     254.140    -682.193
  H      -22.562     254.555    -682.642
  H      -21.476     251.682    -682.318
  H      -23.174     253.557    -688.391
  H      -22.830     251.385    -680.378
  H      -24.070     253.572    -686.900
  H      -22.489     254.026    -679.408
  H      -21.291     252.211    -678.349
  H      -20.339     251.892    -679.829
  P      -25.153     252.514    -679.607
  C      -25.605     254.947    -678.860
  O      -25.091     253.661    -678.478
  O      -25.003     251.118    -679.087
  O      -26.608     252.744    -680.254
  H      -27.232     252.108    -679.847
  H      -25.514     255.626    -678.038
  H      -26.635     254.853    -679.132
  H      -25.048     255.320    -679.694

 6  7  8  9  10  11  12  13  14  15  26  29  33  34 0
 6-311+G(2d,p)
 ****
 36  38  39  40  41 0
 6-311+G(2d,p)
 ****
 1  2  3  4  5  16  17  18  19  20  21  22  23  24  25 0
 3-21G
 ****
 27  28  30  31  32  35  37  42  43  44  45  46  47 0
 3-21G
 ****
 48  49 0
 3-21G
 ****


