%nproc=1
%NoSave
%Mem=1900MB
#P OB98/GEN NMR

erre ene a

0 1
  C       57.470     147.826    -107.525
  O       57.398     146.438    -107.272
  P       57.059     145.867    -105.812
  C       54.955     145.862    -104.335
  O       55.617     146.467    -105.434
  C       54.174     146.894    -103.518
  O       55.095     147.649    -102.683
  C       53.374     147.902    -104.356
  O       52.197     148.207    -103.604
  C       54.305     149.100    -104.398
  O       53.630     150.305    -104.735
  C       54.906     149.048    -102.986
  N       56.147     149.806    -102.894
  C       56.039     151.145    -102.513
  O       54.928     151.658    -102.351
  N       57.182     151.892    -102.380
  C       58.327     151.371    -102.702
  N       59.426     152.157    -102.546
  C       58.471     150.001    -103.228
  C       57.357     149.277    -103.282
  O       58.119     146.081    -104.786
  O       56.732     144.323    -106.079
  H       52.959     150.488    -104.043
  H       57.568     143.811    -106.213
  H       59.437     149.629    -103.536
  H       57.362     148.259    -103.653
  H       54.197     149.450    -102.250
  H       55.087     148.933    -105.149
  H       53.117     147.537    -105.351
  H       53.499     146.350    -102.845
  H       59.282     153.085    -102.167
  H       55.711     145.404    -103.692
  H       60.368     151.823    -102.685
  H       54.292     145.066    -104.691
  P       50.862     148.729    -104.320
  C       49.256     147.733    -106.046
  O       50.585     147.754    -105.559
  O       50.849     150.185    -104.652
  O       49.688     148.355    -103.291
  H       48.880     148.855    -103.526
  H       49.246     147.271    -107.036
  H       48.849     148.746    -106.125
  H       48.628     147.143    -105.373
  H       57.707     147.989    -108.556
  H       58.231     148.261    -106.911
  H       56.527     148.279    -107.300

 3  4  5  6  7  8  9  10  11  12  13  23  27  28  29  30  32 0
 6-311+G(2d,p)
 ****
 34  35 0
 6-311+G(2d,p)
 ****
 1  2  14  15  16  17  18  19  20  21  22  24  25  26 0
 3-21G
 ****
 31  33  36  37  38  39  40  41  42  43  44  45  46 0
 3-21G
 ****


