%nproc=1
%NoSave
%Mem=1900MB
#P OB98/GEN NMR

erre ene a

0 1
  C      752.365    -808.721    -631.108
  O      752.201    -807.859    -629.977
  P      750.692    -807.461    -629.583
  C      750.423    -805.401    -631.212
  O      750.041    -806.724    -630.859
  C      749.856    -805.018    -632.586
  O      748.401    -805.053    -632.533
  C      750.212    -803.618    -633.064
  O      750.033    -803.548    -634.514
  C      749.166    -802.767    -632.391
  O      749.033    -801.477    -632.994
  C      747.922    -803.667    -632.481
  N      746.992    -803.542    -631.312
  C      745.883    -802.709    -631.422
  O      745.598    -802.116    -632.462
  N      745.078    -802.592    -630.316
  C      745.277    -803.237    -629.123
  O      744.599    -802.996    -628.116
  C      746.418    -804.191    -629.067
  C      747.195    -804.277    -630.149
  O      750.901    -806.283    -628.515
  O      749.894    -808.589    -629.032
  H      748.972    -801.651    -633.961
  H      750.703    -806.590    -627.619
  H      744.311    -801.959    -630.370
  H      746.534    -804.765    -628.157
  H      748.042    -804.993    -630.104
  H      747.319    -803.477    -633.381
  H      749.444    -802.603    -631.330
  H      751.236    -803.286    -632.813
  H      750.192    -805.776    -633.352
  H      751.494    -805.316    -631.175
  H      750.009    -804.700    -630.454
  P      751.315    -803.255    -635.431
  C      750.890    -800.736    -635.758
  O      751.731    -801.707    -635.158
  O      751.213    -803.638    -636.857
  O      752.495    -804.041    -634.663
  H      753.231    -804.230    -635.269
  H      750.918    -799.836    -635.155
  H      749.873    -801.061    -635.882
  H      751.325    -800.482    -636.754
  H      753.407    -808.909    -631.265
  H      751.952    -808.252    -631.977
  H      751.859    -809.646    -630.928

 3  4  5  6  7  8  9  10  11  12  13  23  28  29  30  31  32 0
 6-311+G(2d,p)
 ****
 33  34 0
 6-311+G(2d,p)
 ****
 1  2  14  15  16  17  18  19  20  21  22  24  25  26  27 0
 3-21G
 ****
 35  36  37  38  39  40  41  42  43  44  45 0
 3-21G
 ****


