%nproc=1
%NoSave
%Mem=1900MB
#P OB98/GEN NMR

erre ene a

0 1
  C     -433.435    -348.615     363.296
  O     -434.579    -348.120     364.004
  P     -434.918    -348.786     365.425
  C     -436.967    -350.112     364.518
  O     -436.482    -349.155     365.458
  C     -438.471    -349.942     364.271
  O     -439.203    -350.005     365.530
  C     -438.839    -348.602     363.620
  O     -440.019    -348.792     362.822
  C     -439.202    -347.738     364.810
  O     -439.976    -346.605     364.424
  C     -439.922    -348.757     365.690
  N     -442.703    -346.488     369.227
  C     -442.959    -346.678     367.887
  N     -444.148    -346.234     367.423
  N     -442.125    -347.264     367.058
  C     -440.989    -347.697     367.681
  C     -440.620    -347.560     368.989
  C     -441.547    -346.882     369.890
  O     -441.371    -346.676     371.084
  N     -439.383    -348.097     369.229
  C     -439.005    -348.562     368.049
  N     -439.959    -348.371     367.082
  O     -434.808    -347.547     366.442
  O     -433.984    -349.890     365.815
  H     -440.168    -346.084     365.240
  H     -434.010    -347.641     366.980
  H     -443.387    -346.018     369.814
  H     -438.047    -349.035     367.844
  H     -440.968    -348.922     365.373
  H     -438.285    -347.373     365.302
  H     -444.861    -345.821     368.011
  H     -438.057    -348.164     362.998
  H     -444.379    -346.400     366.452
  H     -438.815    -350.767     363.641
  H     -436.768    -351.124     364.874
  H     -436.397    -350.002     363.586
  P     -439.814    -348.888     361.233
  C     -441.253    -346.742     360.890
  O     -441.054    -348.108     360.571
  O     -440.117    -350.422     360.902
  O     -438.463    -348.464     360.756
  H     -439.661    -350.689     360.074
  H     -440.916    -346.137     360.047
  H     -440.695    -346.445     361.791
  H     -442.318    -346.571     361.049
  H     -433.330    -348.085     362.373
  H     -433.564    -349.658     363.095
  H     -432.558    -348.472     363.891

 3  4  5  6  7  8  9  10  11  12  23  26  30  31 0
 6-311+G(2d,p)
 ****
 33  35  36  37  38 0
 6-311+G(2d,p)
 ****
 1  2  13  14  15  16  17  18  19  20  21  22  24  25 0
 3-21G
 ****
 27  28  29  32  34  39  40  41  42  43  44  45  46  47  48  49 0
 3-21G
 ****


