%nproc=1
%NoSave
%Mem=1900MB
#P OB98/GEN NMR

erre ene a

0 1
  C     -590.385      56.064      56.630
  O     -589.712      57.018      57.416
  H     -591.390      56.440      56.421
  H     -590.475      55.118      57.166
  H     -589.861      55.913      55.681
  P     -588.274      56.647      58.034
  C     -588.852      55.671      60.336
  O     -588.545      55.369      58.977
  C     -588.927      54.400      61.189
  O     -587.632      53.748      61.201
  C     -589.328      54.660      62.646
  O     -590.336      53.719      63.034
  C     -588.037      54.407      63.422
  O     -588.299      54.058      64.778
  C     -587.385      53.326      62.554
  N     -585.961      53.179      62.822
  C     -585.537      51.942      63.319
  O     -586.363      51.055      63.550
  N     -584.205      51.749      63.584
  C     -583.368      52.726      63.415
  N     -582.061      52.470      63.703
  C     -583.770      54.060      62.928
  C     -585.067      54.214      62.647
  O     -587.568      57.780      58.703
  O     -587.458      56.022      56.805
  H     -588.867      54.763      65.177
  H     -586.487      56.063      57.000
  H     -583.035      54.844      62.814
  H     -585.450      55.163      62.280
  H     -587.865      52.353      62.705
  H     -587.427      55.317      63.417
  H     -589.705      55.669      62.821
  H     -589.618      53.703      60.699
  H     -581.828      51.537      64.026
  H     -589.804      56.210      60.370
  H     -581.322      53.152      63.615
  H     -588.061      56.319      60.732
  P     -591.809      54.319      63.257
  C     -591.467      55.462      65.559
  O     -591.683      55.638      64.168
  O     -592.501      53.244      64.223
  O     -592.581      54.498      61.988
  H     -593.078      52.656      63.708
  H     -591.404      56.419      66.034
  H     -590.554      54.927      65.713
  H     -592.280      54.908      65.979

 6  7  8  9  10  11  12  13  14  15  16  26  30  31  32  33  35 0
 6-311+G(2d,p)
 ****
 37  38 0
 6-311+G(2d,p)
 ****
 1  2  3  4  5  17  18  19  20  21  22  23  24  25 0
 3-21G
 ****
 27  28  29  34  36  39  40  41  42  43  44  45  46 0
 3-21G
 ****


