%nproc=1
%NoSave
%Mem=1900MB
#P OB98/GEN NMR

erre ene a

0 1
  C       16.403     -23.891     -33.576
  O       15.775     -24.135     -32.312
  P       14.841     -25.443     -32.224
  C       12.533     -24.256     -32.319
  O       13.457     -25.116     -32.973
  C       11.198     -24.182     -33.064
  O       10.298     -23.303     -32.345
  C       11.291     -23.651     -34.499
  O       10.347     -24.362     -35.313
  C       10.798     -22.221     -34.377
  O       10.316     -21.710     -35.616
  C        9.733     -22.388     -33.297
  N        6.815     -18.267     -33.559
  C        6.813     -19.400     -34.347
  N        5.922     -19.427     -35.362
  N        7.612     -20.417     -34.157
  C        8.427     -20.265     -33.085
  C        8.516     -19.195     -32.223
  C        7.654     -18.061     -32.472
  O        7.645     -17.006     -31.841
  N        9.467     -19.409     -31.254
  C        9.956     -20.600     -31.536
  N        9.363     -21.155     -32.642
  O       14.442     -25.501     -30.676
  O       15.521     -26.697     -32.659
  H        9.630     -22.327     -35.933
  H       14.699     -26.364     -30.298
  H        6.192     -17.505     -33.762
  H       10.749     -21.094     -30.994
  H        8.822     -22.844     -33.703
  H       11.621     -21.581     -34.038
  H        5.235     -18.709     -35.524
  H       12.290     -23.716     -34.942
  H        5.875     -20.270     -35.922
  H       10.747     -25.181     -33.058
  H       12.960     -23.252     -32.249
  H       12.376     -24.623     -31.299
  P       10.931     -25.573     -36.189
  C       10.966     -24.259     -38.433
  O       11.710     -24.892     -37.411
  O        9.625     -26.197     -36.873
  O       11.698     -26.582     -35.403
  H        9.766     -27.142     -37.070
  H        9.914     -24.137     -38.164
  H       11.031     -24.859     -39.344
  H       11.397     -23.273     -38.625
  H       16.994     -23.001     -33.515
  H       15.653     -23.770     -34.329
  H       17.031     -24.720     -33.828

 3  4  5  6  7  8  9  10  11  12  23  26  30  31  33  0
 6-311+G(2d,p)
 ****
 35  36  37  38 0
 6-311+G(2d,p)
 ****
 1  2  13  14  15  16  17  18  19  20  21  22  24  25  27  28  29 0
 3-21G
 ****
 32  34  39  40  41  42  43  44  45  46  47  48  49 0
 3-21G
 ****


