%nproc=1
%NoSave
%Mem=1900MB
#P OB98/GEN NMR

erre ene a

0 1
  C     -141.555     126.107    -598.886
  O     -140.221     125.863    -598.484
  H     -141.665     125.934    -599.959
  H     -142.214     125.414    -598.353
  H     -141.849     127.131    -598.638
  P     -139.088     126.787    -599.154
  C     -137.518     124.780    -599.673
  O     -137.702     125.995    -598.955
  C     -136.072     124.313    -599.514
  O     -135.187     125.182    -600.247
  C     -135.566     124.311    -598.070
  O     -135.981     123.162    -597.354
  C     -134.068     124.303    -598.317
  O     -133.631     122.977    -598.678
  C     -133.928     125.261    -599.507
  N     -131.092     129.417    -600.445
  C     -131.080     128.178    -600.980
  N     -131.862     127.117    -600.672
  C     -132.733     127.449    -599.713
  C     -132.863     128.666    -599.050
  C     -131.987     129.689    -599.467
  N     -131.981     130.947    -598.908
  N     -133.843     128.604    -598.085
  C     -134.327     127.378    -598.169
  N     -133.684     126.640    -599.132
  O     -138.955     128.016    -598.130
  O     -139.364     127.234    -600.552
  H     -134.000     122.785    -599.558
  H     -138.544     128.783    -598.581
  H     -130.340     128.009    -601.764
  H     -135.139     126.984    -597.571
  H     -133.129     124.950    -600.196
  H     -133.492     124.594    -597.429
  H     -135.843     125.234    -597.556
  H     -135.999     123.302    -599.960
  H     -137.731     124.950    -600.734
  H     -131.210     131.547    -599.153
  H     -132.545     131.112    -598.080
  H     -138.213     124.020    -599.295
  P     -136.690     123.397    -595.934
  C     -135.588     121.663    -594.336
  O     -136.679     121.965    -595.207
  O     -138.231     123.598    -596.326
  O     -136.148     124.543    -595.145
  H     -138.701     124.131    -595.660
  H     -135.718     120.682    -593.929
  H     -135.558     122.378    -593.541
  H     -134.671     121.702    -594.886

 6  7  8  9  10  11  12  13  14  15  25  28  32  33  34  35 0
 6-311+G(2d,p)
 ****
 36  39  40 0
 6-311+G(2d,p)
 ****
 1  2  3  4  5  16  17  18  19  20  21  22  23  24 0
 3-21G
 ****
 26  27  29  30  31  37  38  41  42  43  44  45  46  47 0
 3-21G
 ****
 48 0
 3-21G
 ****


