%nproc=1
%NoSave
%Mem=1900MB
#P OB98/GEN NMR

erre ene a

0 1
  C      377.303      73.213    -124.792
  O      376.636      72.406    -125.752
  P      376.841      70.820    -125.771
  C      374.236      70.514    -125.934
  O      375.528      70.151    -126.380
  C      373.249      70.399    -127.107
  O      373.489      71.465    -128.051
  C      373.409      69.071    -127.846
  O      372.483      68.114    -127.349
  C      373.162      69.469    -129.287
  O      371.748      69.554    -129.561
  C      373.803      70.874    -129.346
  N      375.264      70.970    -129.539
  C      375.889      70.154    -130.479
  O      375.280      69.375    -131.221
  N      377.258      70.267    -130.557
  C      378.030      71.117    -129.817
  O      379.246      71.038    -129.714
  C      377.295      72.123    -129.040
  C      375.973      71.997    -128.925
  O      376.771      70.431    -124.226
  O      378.104      70.337    -126.413
  H      371.401      70.287    -129.037
  H      377.677      70.322    -123.848
  H      377.728      69.578    -131.142
  H      377.862      72.910    -128.552
  H      375.411      72.712    -128.316
  H      373.338      71.501    -130.117
  H      373.562      68.713    -129.975
  H      374.439      68.702    -127.758
  H      372.228      70.509    -126.720
  H      374.246      71.532    -125.536
  H      373.925      69.853    -125.115
  P      372.943      66.591    -127.183
  C      373.903      67.000    -124.837
  O      372.915      66.319    -125.603
  O      374.211      66.205    -127.892
  O      371.685      65.766    -127.741
  H      371.841      65.502    -128.674
  H      373.667      66.876    -123.775
  H      373.900      68.065    -125.084
  H      374.885      66.572    -125.044
  H      377.038      74.239    -124.943
  H      378.361      73.098    -124.903
  H      377.012      72.910    -123.808

 3  4  5  6  7  8  9  10  11  12  13  23  28  29  30  31  32 0
 6-311+G(2d,p)
 ****
 33  34 0
 6-311+G(2d,p)
 ****
 1  2  14  15  16  17  18  19  20  21  22  24  25  26  27 0
 3-21G
 ****
 35  36  37  38  39  40  41  42  43  44  45 0
 3-21G
 ****


