%nproc=1
%NoSave
%Mem=1900MB
#P OB98/GEN NMR

erre ene a

0 1
  C     -375.901     652.941     207.889
  O     -377.109     653.618     208.257
  P     -378.369     653.642     207.281
  C     -378.883     654.725     204.940
  O     -378.053     654.645     206.083
  C     -378.020     654.898     203.685
  O     -377.310     653.675     203.397
  C     -378.846     655.262     202.466
  O     -378.897     656.675     202.286
  C     -378.135     654.534     201.337
  O     -376.999     655.296     200.901
  C     -377.678     653.250     202.056
  N     -378.641     652.144     202.188
  C     -379.090     651.464     201.041
  O     -378.683     651.705     199.916
  N     -380.036     650.482     201.260
  C     -380.548     650.107     202.475
  O     -381.553     649.427     202.631
  C     -379.856     650.670     203.649
  C     -378.966     651.657     203.466
  O     -379.478     654.427     208.138
  O     -378.848     652.306     206.823
  H     -376.583     654.794     200.176
  H     -380.089     653.795     208.552
  H     -380.463     650.099     200.426
  H     -380.128     650.299     204.631
  H     -378.485     652.106     204.304
  H     -376.780     652.831     201.585
  H     -378.782     654.417     200.481
  H     -379.869     654.863     202.564
  H     -377.276     655.686     203.886
  H     -379.588     655.555     205.054
  H     -379.491     653.798     204.848
  P     -380.054     657.335     201.419
  C     -381.534     656.336     199.570
  O     -380.261     656.348     200.157
  O     -379.879     658.773     201.076
  O     -381.368     657.087     202.312
  H     -381.571     657.909     202.822
  H     -381.486     655.779     198.633
  H     -381.874     657.367     199.352
  H     -382.255     655.864     200.242
  H     -375.182     653.042     208.675
  H     -375.510     653.371     206.991
  H     -376.109     651.904     207.727

 3  4  5  6  7  8  9  10  11  12  13  23  28  29  30  31  32 0
 6-311+G(2d,p)
 ****
 33  34 0
 6-311+G(2d,p)
 ****
 1  2  14  15  16  17  18  19  20  21  22  24  25  26  27 0
 3-21G
 ****
 35  36  37  38  39  40  41  42  43  44  45 0
 3-21G
 ****


