%nproc=1
%NoSave
%Mem=1900MB
#P OB98/GEN NMR

erre ene a

0 1
  C     -544.944    1304.247    -151.557
  O     -545.940    1305.234    -151.760
  H     -544.741    1304.168    -150.488
  H     -544.016    1304.523    -152.065
  H     -545.287    1303.266    -151.921
  P     -546.497    1305.476    -153.244
  C     -548.456    1303.818    -153.226
  O     -548.083    1305.187    -153.195
  C     -549.904    1303.651    -152.774
  O     -550.016    1304.059    -151.395
  C     -550.905    1304.489    -153.595
  O     -552.098    1303.730    -153.759
  C     -551.179    1305.681    -152.690
  O     -552.446    1306.264    -152.943
  C     -551.045    1305.074    -151.309
  N     -552.935    1308.415    -148.007
  C     -553.577    1307.492    -148.800
  N     -554.932    1307.485    -148.752
  N     -552.948    1306.667    -149.613
  C     -551.594    1306.785    -149.556
  C     -550.850    1307.665    -148.815
  C     -551.549    1308.577    -147.945
  O     -551.023    1309.433    -147.213
  N     -549.501    1307.489    -149.061
  C     -549.450    1306.517    -149.965
  N     -550.696    1306.071    -150.308
  O     -545.767    1304.763    -154.336
  O     -546.428    1307.067    -153.422
  H     -552.418    1306.647    -153.846
  H     -545.641    1307.324    -153.943
  H     -553.468    1309.035    -147.416
  H     -548.546    1306.119    -150.389
  H     -551.979    1304.590    -150.956
  H     -550.410    1306.456    -152.860
  H     -555.474    1308.073    -148.162
  H     -550.514    1304.787    -154.574
  H     -555.415    1306.802    -149.317
  H     -550.169    1302.586    -152.808
  H     -547.792    1303.262    -152.555
  H     -548.334    1303.426    -154.245
  P     -552.978    1303.937    -155.072
  C     -552.190    1301.953    -156.537
  O     -553.255    1302.508    -155.742
  O     -552.483    1304.993    -156.028
  O     -554.428    1304.331    -154.487
  H     -554.865    1304.906    -155.121
  H     -552.494    1301.004    -156.927
  H     -551.319    1301.826    -155.928
  H     -551.966    1302.616    -157.346

 6  7  8  9  10  11  12  13  14  15  26  29  33  34 0
 6-311+G(2d,p)
 ****
 36  38  39  40  41 0
 6-311+G(2d,p)
 ****
 1  2  3  4  5  16  17  18  19  20  21  22  23  24  25 0
 3-21G
 ****
 27  28  30  31  32  35  37  42  43  44  45  46  47 0
 3-21G
 ****
 48  49 0
 3-21G
 ****


