%nproc=1
%NoSave
%Mem=1900MB
#P OB98/GEN NMR

erre ene a

0 1
  C      251.092     -94.175      40.846
  O      251.304     -94.302      39.434
  P      251.382     -92.962      38.559
  C      250.043     -93.247      36.345
  O      251.295     -93.357      37.006
  C      249.652     -94.587      35.714
  O      249.243     -95.547      36.709
  C      248.483     -94.488      34.746
  O      248.904     -94.051      33.463
  C      248.026     -95.938      34.684
  O      248.884     -96.683      33.796
  C      248.231     -96.404      36.130
  N      243.702     -98.571      37.145
  C      244.662     -98.869      36.242
  N      245.833     -98.234      36.019
  C      245.977     -97.197      36.859
  C      245.084     -96.772      37.830
  C      243.897     -97.509      37.962
  N      242.923     -97.201      38.885
  N      245.571     -95.664      38.491
  C      246.745     -95.433      37.939
  N      247.030     -96.328      36.942
  O      252.905     -92.504      38.736
  O      250.435     -91.896      39.000
  H      248.564     -97.604      33.798
  H      252.958     -91.529      38.741
  H      244.465     -99.733      35.614
  H      247.420     -94.637      38.226
  H      248.598     -97.435      36.188
  H      247.008     -96.044      34.304
  H      247.683     -93.859      35.158
  H      250.532     -94.985      35.190
  H      250.091     -92.471      35.576
  H      242.111     -97.792      38.938
  H      243.073     -96.423      39.511
  H      249.288     -92.919      37.066
  P      247.810     -93.328      32.537
  C      248.008     -95.065      30.616
  O      248.185     -93.725      31.032
  O      248.214     -91.782      32.646
  O      246.397     -93.569      32.950
  H      247.420     -91.222      32.550
  H      248.013     -95.097      29.524
  H      247.058     -95.469      30.975
  H      248.833     -95.679      30.992
  H      251.063     -95.148      41.291
  H      250.163     -93.674      41.024
  H      251.891     -93.609      41.277

 3  4  5  6  7  8  9  10  11  12  22  25  29  30  31  32 0
 6-311+G(2d,p)
 ****
 33  36  37 0
 6-311+G(2d,p)
 ****
 1  2  13  14  15  16  17  18  19  20  21  23  24  26 0
 3-21G
 ****
 27  28  34  35  38  39  40  41  42  43  44  45  46  47  48 0
 3-21G
 ****


