%nproc=1
%NoSave
%Mem=1900MB
#P OB98/GEN NMR

erre ene a

0 1
  C      126.494      55.617     -74.124
  O      126.843      56.862     -74.732
  P      127.349      58.016     -73.735
  C      129.943      57.941     -73.688
  O      128.780      58.520     -74.265
  C      131.193      58.282     -74.511
  O      131.156      57.615     -75.808
  C      131.360      59.789     -74.782
  O      132.770      60.056     -74.771
  C      130.796      59.921     -76.190
  O      131.162      61.135     -76.828
  C      131.347      58.641     -76.812
  N      131.504      59.187     -81.884
  C      132.278      59.686     -80.898
  N      132.169      59.494     -79.564
  C      131.131      58.688     -79.288
  C      130.246      58.103     -80.185
  C      130.464      58.380     -81.548
  N      129.666      57.895     -82.559
  N      129.290      57.355     -79.513
  C      129.557      57.554     -78.233
  N      130.701      58.277     -78.053
  O      127.697      57.221     -72.389
  O      126.344      59.098     -73.512
  H      130.715      61.199     -77.697
  H      126.966      57.301     -71.748
  H      133.096      60.325     -81.223
  H      128.958      57.195     -77.404
  H      132.422      58.708     -77.013
  H      129.700      59.889     -76.146
  H      130.867      60.427     -74.044
  H      132.073      57.904     -73.973
  H      129.835      56.855     -73.637
  H      129.900      58.153     -83.506
  H      128.876      57.301     -82.345
  H      130.041      58.290     -72.652
  P      133.390      60.887     -73.548
  C      133.787      59.116     -71.730
  O      134.361      59.845     -72.802
  O      132.133      60.919     -72.547
  O      133.945      62.234     -73.876
  H      131.760      60.026     -72.425
  H      134.521      58.395     -71.365
  H      132.896      58.581     -72.069
  H      133.528      59.797     -70.913
  H      126.174      54.929     -74.878
  H      125.701      55.772     -73.423
  H      127.346      55.217     -73.615

 3  4  5  6  7  8  9  10  11  12  22  25  29  30  31  32 0
 6-311+G(2d,p)
 ****
 33  36  37 0
 6-311+G(2d,p)
 ****
 1  2  13  14  15  16  17  18  19  20  21  23  24  26 0
 3-21G
 ****
 27  28  34  35  38  39  40  41  42  43  44  45  46  47  48 0
 3-21G
 ****


