%nproc=1
%NoSave
%Mem=1900MB
#P OB98/GEN NMR

erre ene a

0 1
  C     -899.002     680.429     258.457
  O     -898.102     680.642     259.532
  P     -898.302     681.956     260.431
  C     -897.422     684.393     260.450
  O     -897.392     683.127     259.812
  C     -896.072     685.108     260.288
  O     -895.042     684.355     260.968
  C     -895.632     685.255     258.818
  O     -894.892     686.485     258.658
  C     -894.642     684.121     258.623
  O     -893.752     684.380     257.551
  C     -893.992     684.065     260.011
  N     -889.702     681.408     259.690
  C     -889.902     682.760     259.572
  N     -888.812     683.505     259.216
  N     -891.062     683.352     259.769
  C     -892.052     682.492     260.090
  C     -891.972     681.114     260.252
  C     -890.702     680.484     260.018
  O     -890.462     679.279     260.082
  N     -893.172     680.590     260.617
  C     -894.012     681.625     260.636
  N     -893.362     682.791     260.294
  O     -897.522     681.564     261.789
  O     -899.722     682.313     260.718
  H     -893.412     685.301     257.663
  H     -898.172     681.367     262.495
  H     -888.802     680.995     259.512
  H     -895.062     681.576     260.869
  H     -893.232     684.850     260.121
  H     -895.182     683.189     258.400
  H     -887.912     683.111     259.005
  H     -896.442     685.228     258.094
  H     -888.952     684.503     259.090
  H     -896.132     686.085     260.773
  H     -897.622     684.258     261.513
  H     -898.212     685.008     260.025
  P     -895.042     687.218     257.243
  C     -893.482     687.345     255.156
  O     -893.832     686.673     256.342
  O     -894.622     688.733     257.571
  O     -896.402     687.112     256.630
  H     -895.052     689.339     256.916
  H     -892.472     687.750     255.245
  H     -894.192     688.172     254.928
  H     -893.512     686.634     254.325
  H     -898.746     679.521     257.952
  H     -898.939     681.248     257.771
  H     -900.000     680.358     258.836

 3  4  5  6  7  8  9  10  11  12  23  26  30  31 0
 6-311+G(2d,p)
 ****
 33  35  36  37  38 0
 6-311+G(2d,p)
 ****
 1  2  13  14  15  16  17  18  19  20  21  22  24  25 0
 3-21G
 ****
 27  28  29  32  34  39  40  41  42  43  44  45  46  47  48  49 0
 3-21G
 ****


