%nproc=1
%NoSave
%Mem=1900MB
#P OB98/GEN NMR

erre ene a

0 1
  C     1063.950    -231.158    -119.150
  O     1064.381    -232.129    -120.086
  H     1062.849    -231.217    -119.075
  H     1064.219    -230.159    -119.495
  H     1064.377    -231.346    -118.166
  P     1065.951    -232.363    -120.273
  C     1065.735    -234.432    -121.810
  O     1066.140    -233.076    -121.699
  C     1065.562    -234.806    -123.272
  O     1064.366    -234.194    -123.804
  C     1066.696    -234.337    -124.168
  O     1067.833    -235.172    -124.022
  C     1066.032    -234.408    -125.541
  O     1066.045    -235.750    -126.037
  C     1064.600    -233.949    -125.206
  N     1064.368    -232.526    -125.550
  C     1063.730    -232.282    -126.751
  O     1063.396    -233.163    -127.534
  N     1063.531    -230.955    -127.052
  C     1063.966    -229.896    -126.325
  O     1063.831    -228.724    -126.677
  C     1064.655    -230.216    -125.068
  C     1064.833    -231.517    -124.745
  O     1066.656    -233.028    -119.140
  O     1066.530    -230.889    -120.541
  H     1065.442    -235.765    -126.810
  H     1066.988    -230.571    -119.738
  H     1063.074    -230.737    -127.922
  H     1065.026    -229.404    -124.469
  H     1065.348    -231.766    -123.831
  H     1063.871    -234.550    -125.772
  H     1066.550    -233.786    -126.282
  H     1066.942    -233.292    -123.949
  H     1065.424    -235.902    -123.348
  H     1064.772    -234.548    -121.289
  H     1066.482    -235.070    -121.337
  P     1069.295    -234.503    -123.886
  C     1070.374    -236.835    -123.717
  O     1070.371    -235.587    -124.401
  O     1069.598    -233.889    -122.563
  O     1069.311    -233.396    -125.052
  H     1069.450    -232.524    -124.650
  H     1071.123    -237.472    -124.140
  H     1069.415    -237.298    -123.816
  H     1070.587    -236.673    -122.681

 6  7  8  9  10  11  12  13  14  15  16  26  31  32  33  34  35 0
 6-311+G(2d,p)
 ****
 36  37 0
 6-311+G(2d,p)
 ****
 1  2  3  4  5  17  18  19  20  21  22  23  24  25 0
 3-21G
 ****
 27  28  29  30  38  39  40  41  42  43  44  45 0
 3-21G
 ****


