%nproc=1
%NoSave
%Mem=1900MB
#P OB98/GEN NMR

erre ene a

0 1
  C       51.545      74.206     143.848
  O       52.854      74.239     143.313
  H       50.907      74.862     143.248
  H       51.543      74.565     144.881
  H       51.141      73.191     143.805
  P       53.998      73.387     144.043
  C       54.381      70.882     144.545
  O       53.470      71.873     144.082
  C       53.638      69.803     145.329
  O       53.119      70.346     146.559
  C       52.448      69.195     144.590
  O       52.882      68.200     143.679
  C       51.665      68.616     145.756
  O       52.287      67.393     146.198
  C       51.838      69.709     146.827
  N       47.010      70.782     147.972
  C       47.674      69.571     147.987
  N       46.944      68.487     148.326
  N       48.941      69.432     147.685
  C       49.528      70.588     147.298
  C       48.970      71.845     147.225
  C       47.586      71.995     147.627
  O       46.965      73.055     147.651
  N       49.849      72.757     146.699
  C       50.955      72.064     146.505
  N       50.810      70.738     146.843
  O       54.457      73.906     145.371
  O       55.189      73.330     142.976
  H       52.219      66.755     145.464
  H       55.818      74.062     143.112
  H       46.032      70.825     148.208
  H       51.885      72.468     146.126
  H       51.883      69.291     147.839
  H       50.631      68.376     145.496
  H       45.940      68.507     148.421
  H       51.842      69.965     144.102
  H       47.402      67.585     148.286
  H       54.367      69.029     145.605
  H       55.117      71.382     145.183
  H       54.907      70.423     143.700
  P       52.022      67.824     142.372
  C       51.103      69.215     140.393
  O       51.617      69.230     141.714
  O       50.881      66.899     142.620
  O       53.103      67.270     141.335
  H       53.296      66.307     141.457
  H       50.878      70.215     140.086
  H       50.212      68.624     140.364
  H       51.831      68.795     139.732

 6  7  8  9  10  11  12  13  14  15  26  29  33  34 0
 6-311+G(2d,p)
 ****
 36  38  39  40  41 0
 6-311+G(2d,p)
 ****
 1  2  3  4  5  16  17  18  19  20  21  22  23  24  25 0
 3-21G
 ****
 27  28  30  31  32  35  37  42  43  44  45  46  47 0
 3-21G
 ****
 48  49 0
 3-21G
 ****


