%nproc=1
%NoSave
%Mem=1900MB
#P OB98/GEN NMR

erre ene a

0 1
  C     -896.830    -899.360    -854.633
  O     -896.940    -898.010    -854.183
  H     -897.790    -899.690    -854.991
  H     -896.500    -900.000    -853.809
  H     -896.110    -899.420    -855.453
  P     -895.620    -897.340    -853.582
  C     -896.100    -894.880    -854.196
  O     -896.090    -895.860    -853.157
  C     -896.000    -893.480    -853.596
  O     -897.110    -893.230    -852.713
  C     -894.690    -893.260    -852.768
  O     -894.190    -891.950    -852.996
  C     -895.160    -893.400    -851.333
  O     -894.310    -892.710    -850.418
  C     -896.600    -892.850    -851.427
  N     -898.800    -891.750    -846.951
  C     -898.130    -890.990    -847.837
  N     -897.600    -891.370    -849.017
  C     -897.840    -892.660    -849.267
  C     -898.520    -893.570    -848.454
  C     -899.010    -893.050    -847.261
  N     -899.680    -893.810    -846.318
  N     -898.530    -894.810    -849.047
  C     -897.900    -894.660    -850.197
  N     -897.440    -893.380    -850.376
  O     -894.400    -897.400    -854.454
  O     -895.500    -898.070    -852.175
  H     -893.440    -893.140    -850.431
  H     -896.350    -898.140    -851.723
  H     -897.980    -889.930    -847.572
  H     -897.710    -895.450    -850.948
  H     -896.640    -891.760    -851.352
  H     -895.180    -894.460    -851.047
  H     -893.910    -894.010    -853.015
  H     -896.060    -892.730    -854.414
  H     -897.030    -894.950    -854.760
  H     -900.000    -893.380    -845.473
  H     -899.860    -894.800    -846.532
  H     -895.270    -895.080    -854.864
  P     -892.990    -891.750    -854.015
  C     -893.380    -889.230    -853.513
  O     -892.470    -890.230    -853.934
  O     -893.200    -892.260    -855.410
  O     -891.800    -892.560    -853.285
  H     -891.260    -893.010    -853.987
  H     -892.889    -888.279    -853.511
  H     -893.726    -889.455    -852.526
  H     -894.213    -889.200    -854.184

 6  7  8  9  10  11  12  13  14  15  25  28  32  33  34  35 0
 6-311+G(2d,p)
 ****
 36  39  40 0
 6-311+G(2d,p)
 ****
 1  2  3  4  5  16  17  18  19  20  21  22  23  24 0
 3-21G
 ****
 26  27  29  30  31  37  38  41  42  43  44  45  46  47 0
 3-21G
 ****
 48 0
 3-21G
 ****


