%nproc=1
%NoSave
%Mem=1900MB
#P OB98/GEN NMR

erre ene a

0 1
  C      362.827     -86.059     158.835
  O      364.182     -86.436     158.984
  H      362.243     -86.538     159.624
  H      362.451     -86.398     157.865
  H      362.719     -84.973     158.921
  P      365.245     -85.694     158.029
  C      365.508     -87.566     156.208
  O      364.994     -86.292     156.564
  C      365.860     -87.603     154.718
  O      366.265     -88.947     154.371
  C      364.708     -87.210     153.803
  O      365.234     -86.476     152.694
  C      364.161     -88.545     153.323
  O      363.464     -88.422     152.082
  C      365.436     -89.399     153.281
  N      365.145     -90.831     153.389
  C      365.465     -91.619     152.277
  O      365.940     -91.105     151.266
  N      365.195     -92.965     152.322
  C      364.593     -93.470     153.356
  N      364.334     -94.802     153.331
  C      364.191     -92.664     154.526
  C      364.506     -91.370     154.480
  O      366.621     -86.370     158.491
  O      365.221     -84.206     158.128
  H      363.458     -89.306     151.650
  H      366.552     -87.327     158.645
  H      363.677     -93.125     155.358
  H      364.255     -90.707     155.301
  H      365.988     -89.228     152.350
  H      363.456     -88.945     154.063
  H      363.936     -86.620     154.297
  H      366.737     -86.962     154.557
  H      364.610     -95.317     152.501
  H      364.775     -88.346     156.427
  H      363.826     -95.289     154.054
  H      366.400     -87.751     156.815
  P      364.960     -84.898     152.601
  C      362.969     -84.978     150.963
  O      363.407     -84.657     152.275
  O      365.913     -84.124     151.749
  O      365.063     -84.425     154.132
  H      365.512     -83.555     154.151
  H      361.922     -84.773     150.876
  H      363.146     -86.016     150.772
  H      363.508     -84.387     150.252

 6  7  8  9  10  11  12  13  14  15  16  26  30  31  32  33  35 0
 6-311+G(2d,p)
 ****
 37  38 0
 6-311+G(2d,p)
 ****
 1  2  3  4  5  17  18  19  20  21  22  23  24  25 0
 3-21G
 ****
 27  28  29  34  36  39  40  41  42  43  44  45  46 0
 3-21G
 ****


