%nproc=1
%NoSave
%Mem=1900MB
#P OB98/GEN NMR

erre ene a

0 1
  C     -109.232     -61.109    -622.762
  O     -110.000     -60.181    -622.022
  H     -108.174     -60.862    -622.639
  H     -109.488     -61.051    -623.823
  H     -109.405     -62.121    -622.391
  P     -111.597     -60.305    -622.163
  C     -111.594     -61.615    -619.909
  O     -111.957     -61.600    -621.280
  C     -112.810     -61.964    -619.048
  O     -113.914     -61.083    -619.349
  C     -113.349     -63.378    -619.268
  O     -112.580     -64.380    -618.626
  C     -114.723     -63.228    -618.640
  O     -114.596     -63.215    -617.205
  C     -115.142     -61.845    -619.176
  N     -115.878     -61.920    -620.442
  C     -117.053     -62.683    -620.443
  O     -117.424     -63.254    -619.421
  N     -117.764     -62.813    -621.609
  C     -117.349     -62.215    -622.681
  N     -118.086     -62.381    -623.814
  C     -116.126     -61.391    -622.728
  C     -115.449     -61.287    -621.590
  O     -111.799     -60.835    -623.661
  O     -112.382     -59.082    -621.827
  H     -115.444     -62.895    -616.853
  H     -112.744     -61.087    -623.807
  H     -115.814     -60.920    -623.655
  H     -114.537     -60.698    -621.545
  H     -115.761     -61.307    -618.446
  H     -115.402     -64.039    -618.892
  H     -113.470     -63.599    -620.335
  H     -112.531     -61.802    -618.001
  H     -118.889     -63.000    -623.763
  H     -111.220     -60.619    -619.642
  H     -117.774     -62.085    -624.728
  H     -110.804     -62.349    -619.736
  P     -112.654     -65.868    -619.231
  C     -111.485     -65.192    -621.460
  O     -112.646     -65.714    -620.830
  O     -114.154     -66.313    -618.912
  O     -111.646     -66.822    -618.674
  H     -114.201     -67.274    -618.727
  H     -111.640     -65.154    -622.518
  H     -110.648     -65.823    -621.245
  H     -111.292     -64.206    -621.092

 6  7  8  9  10  11  12  13  14  15  16  26  30  31  32  33  35 0
 6-311+G(2d,p)
 ****
 37  38 0
 6-311+G(2d,p)
 ****
 1  2  3  4  5  17  18  19  20  21  22  23  24  25 0
 3-21G
 ****
 27  28  29  34  36  39  40  41  42  43  44  45  46 0
 3-21G
 ****


