%nproc=1
%NoSave
%Mem=1900MB
#P OB98/GEN NMR

erre ene a

0 1
  C      208.220    -176.427      35.936
  O      207.793    -175.495      34.932
  P      206.920    -175.926      33.658
  C      204.370    -175.642      33.932
  O      205.604    -175.016      33.584
  C      203.572    -176.043      32.688
  O      202.477    -176.910      33.044
  C      202.937    -174.881      31.933
  O      203.903    -174.175      31.174
  C      201.881    -175.610      31.108
  O      202.456    -176.175      29.918
  C      201.427    -176.719      32.078
  N      200.156    -176.414      32.720
  C      199.914    -177.025      33.953
  O      200.726    -177.822      34.424
  N      198.744    -176.732      34.615
  C      197.865    -175.962      34.056
  N      196.728    -175.704      34.760
  C      198.040    -175.371      32.717
  C      199.198    -175.635      32.114
  O      206.651    -177.394      33.576
  O      207.775    -175.446      32.389
  H      201.868    -176.907      29.647
  H      207.606    -176.052      31.645
  H      197.269    -174.757      32.275
  H      199.412    -175.233      31.130
  H      201.329    -177.675      31.547
  H      201.068    -174.950      30.790
  H      202.442    -174.205      32.642
  H      204.244    -176.608      32.027
  H      196.642    -176.119      35.677
  H      203.783    -174.932      34.527
  H      195.982    -175.116      34.418
  H      204.585    -176.523      34.546
  P      204.135    -172.612      31.437
  C      206.063    -172.452      33.121
  O      205.689    -172.400      31.757
  O      203.193    -171.973      32.401
  O      203.988    -171.960      29.978
  H      203.623    -171.060      30.070
  H      207.129    -172.697      33.186
  H      205.489    -173.213      33.662
  H      205.896    -171.474      33.581
  H      208.786    -175.912      36.683
  H      208.829    -177.183      35.485
  H      207.363    -176.882      36.388

 3  4  5  6  7  8  9  10  11  12  13  23  27  28  29  30  32 0
 6-311+G(2d,p)
 ****
 34  35 0
 6-311+G(2d,p)
 ****
 1  2  14  15  16  17  18  19  20  21  22  24  25  26 0
 3-21G
 ****
 31  33  36  37  38  39  40  41  42  43  44  45  46 0
 3-21G
 ****


