%nproc=1
%NoSave
%Mem=1900MB
#P OB98/GEN NMR

erre ene a

0 1
  C     -284.287     -64.488     -18.727
  O     -283.729     -65.349     -17.720
  P     -282.669     -64.847     -16.622
  C     -280.292     -65.728     -17.097
  O     -281.529     -65.964     -16.436
  C     -279.146     -66.529     -16.458
  O     -279.148     -66.326     -15.005
  C     -279.210     -68.043     -16.710
  O     -277.859     -68.486     -16.905
  C     -279.781     -68.560     -15.400
  O     -279.561     -69.945     -15.187
  C     -279.039     -67.642     -14.411
  N     -279.569     -67.630     -13.051
  C     -278.658     -67.388     -12.009
  O     -277.461     -67.245     -12.222
  N     -279.149     -67.322     -10.720
  C     -280.409     -67.501     -10.494
  N     -280.821     -67.414      -9.199
  C     -281.390     -67.778     -11.552
  C     -280.909     -67.830     -12.795
  O     -283.299     -64.428     -15.331
  O     -281.900     -63.615     -17.296
  H     -281.696     -62.956     -16.615
  H     -279.800     -70.414     -16.011
  H     -282.434     -67.913     -11.322
  H     -281.568     -68.002     -13.641
  H     -277.979     -67.905     -14.398
  H     -280.862     -68.384     -15.390
  H     -279.801     -68.323     -17.587
  H     -278.202     -66.118     -16.829
  H     -280.117     -67.210      -8.493
  H     -280.056     -64.659     -17.032
  H     -281.774     -67.525      -8.904
  H     -280.399     -65.992     -18.156
  P     -277.503     -69.427     -18.157
  C     -277.274     -71.686     -16.888
  O     -276.637     -70.655     -17.611
  O     -276.395     -68.552     -18.920
  O     -278.634     -69.746     -19.084
  H     -276.390     -68.795     -19.867
  H     -276.906     -72.651     -17.243
  H     -278.357     -71.670     -17.003
  H     -277.029     -71.589     -15.823
  H     -284.965     -65.047     -19.338
  H     -283.500     -64.094     -19.335
  H     -284.812     -63.683     -18.257

 3  4  5  6  7  8  9  10  11  12  13  24  27  28  29  30  32 0
 6-311+G(2d,p)
 ****
 34  35 0
 6-311+G(2d,p)
 ****
 1  2  14  15  16  17  18  19  20  21  22  23  25  26 0
 3-21G
 ****
 31  33  36  37  38  39  40  41  42  43  44  45  46 0
 3-21G
 ****


