%nproc=1
%NoSave
%Mem=1900MB
#P OB98/GEN NMR

erre ene a

0 1
  C       58.292     276.114    -380.385
  O       59.177     275.330    -379.610
  H       57.653     276.690    -379.711
  H       57.661     275.470    -381.004
  H       58.855     276.805    -381.018
  P       60.221     274.414    -380.416
  C       62.145     275.810    -379.355
  O       61.571     275.273    -380.540
  C       63.613     276.141    -379.596
  O       64.336     274.937    -379.951
  C       63.844     277.105    -380.753
  O       63.584     278.452    -380.394
  C       65.306     276.837    -381.072
  O       66.180     277.573    -380.206
  C       65.433     275.332    -380.805
  N       67.696     271.513    -383.334
  C       67.877     272.007    -382.088
  N       67.227     273.020    -381.482
  C       66.275     273.522    -382.292
  C       65.971     273.123    -383.580
  C       66.730     272.063    -384.108
  N       66.559     271.576    -385.387
  N       64.959     273.903    -384.105
  C       64.653     274.751    -383.146
  N       65.418     274.557    -382.031
  O       59.630     274.414    -381.903
  O       60.394     273.031    -379.885
  H       65.980     278.518    -380.354
  H       59.137     273.585    -382.057
  H       68.661     271.528    -381.504
  H       63.895     275.523    -383.216
  H       66.364     275.082    -380.277
  H       65.539     277.122    -382.101
  H       63.233     276.813    -381.614
  H       64.041     276.533    -378.667
  H       62.067     275.071    -378.548
  H       61.588     276.707    -379.065
  H       67.186     270.863    -385.718
  H       65.919     272.052    -386.007
  P       63.520     279.537    -381.569
  C       61.055     278.954    -382.207
  O       62.412     279.037    -382.619
  O       64.901     279.342    -382.350
  O       63.337     280.947    -381.108
  H       65.226     280.206    -382.676
  H       60.455     278.606    -383.022
  H       60.715     279.922    -381.901
  H       60.972     278.272    -381.387

 6  7  8  9  10  11  12  13  14  15  25  28  32  33  34  35 0
 6-311+G(2d,p)
 ****
 36  37  40 0
 6-311+G(2d,p)
 ****
 1  2  3  4  5  16  17  18  19  20  21  22  23  24 0
 3-21G
 ****
 26  27  29  30  31  38  39 41  42  43  44  45  46  47  48 0
 3-21G
 ****


