%nproc=1
%NoSave
%Mem=1900MB
#P OB98/GEN NMR

erre ene a

0 1
  C      167.257     -70.528     316.478
  O      167.194     -70.071     317.837
  P      166.492     -70.906     319.013
  C      168.547     -72.202     319.878
  O      167.570     -71.214     320.165
  C      169.396     -72.542     321.110
  O      170.347     -71.459     321.376
  C      168.588     -72.765     322.401
  O      169.227     -73.839     323.101
  C      168.772     -71.438     323.123
  O      168.482     -71.499     324.511
  C      170.241     -71.156     322.786
  N      170.701     -69.798     323.057
  C      171.710     -69.630     324.012
  O      172.158     -70.585     324.651
  N      172.188     -68.360     324.247
  C      171.700     -67.351     323.599
  N      172.219     -66.125     323.870
  C      170.624     -67.476     322.602
  C      170.178     -68.715     322.379
  O      165.769     -72.126     318.538
  O      165.467     -69.886     319.710
  H      164.668     -70.375     319.993
  H      168.801     -70.671     324.922
  H      170.248     -66.611     322.076
  H      169.407     -68.895     321.636
  H      170.878     -71.871     323.314
  H      168.099     -70.696     322.678
  H      167.539     -73.033     322.218
  H      169.997     -73.431     320.874
  H      172.966     -66.075     324.560
  H      169.207     -71.822     319.092
  H      171.921     -65.273     323.424
  H      168.047     -73.105     319.503
  P      168.392     -75.164     323.457
  C      168.762     -76.797     321.464
  O      169.134     -76.408     322.769
  O      167.092     -74.995     322.532
  O      167.981     -75.321     324.890
  H      166.353     -75.486     322.923
  H      169.668     -76.990     320.879
  H      168.174     -76.030     320.949
  H      168.175     -77.721     321.518
  H      167.771     -69.804     315.882
  H      166.265     -70.661     316.100
  H      167.782     -71.460     316.439

 3  4  5  6  7  8  9  10  11  12  13  24  27  28  29  30  32 0
 6-311+G(2d,p)
 ****
 34  35 0
 6-311+G(2d,p)
 ****
 1  2  14  15  16  17  18  19  20  21  22  23  25  26 0
 3-21G
 ****
 31  33  36  37  38  39  40  41  42  43  44  45  46 0
 3-21G
 ****


