%nproc=1
%NoSave
%Mem=1900MB
#P OB98/GEN NMR

erre ene a

0 1
  C      326.686    -251.024     362.778
  O      325.878    -249.942     363.190
  H      327.691    -250.887     363.183
  H      326.748    -251.057     361.686
  H      326.282    -251.970     363.153
  P      324.345    -249.965     362.714
  C      324.633    -248.280     360.751
  O      324.352    -249.617     361.145
  C      324.671    -248.185     359.229
  O      325.771    -248.973     358.717
  C      323.428    -248.743     358.548
  O      322.333    -247.840     358.591
  C      323.949    -249.000     357.141
  O      323.921    -247.802     356.346
  C      325.398    -249.437     357.397
  N      327.748    -253.193     354.860
  C      327.853    -251.843     354.786
  N      327.196    -250.914     355.505
  C      326.387    -251.492     356.402
  C      326.176    -252.845     356.601
  C      326.907    -253.723     355.782
  N      326.784    -255.084     355.844
  N      325.236    -253.053     357.593
  C      324.886    -251.847     357.995
  N      325.557    -250.872     357.305
  O      323.734    -248.650     363.396
  O      323.584    -251.192     363.093
  H      324.224    -247.079     356.938
  H      323.246    -248.902     364.198
  H      328.544    -251.472     354.033
  H      324.157    -251.628     358.761
  H      326.099    -248.979     356.686
  H      323.348    -249.745     356.628
  H      323.147    -249.704     358.999
  H      324.837    -247.140     358.946
  H      325.608    -247.981     361.154
  H      323.862    -247.618     361.163
  H      327.290    -255.653     355.182
  H      326.076    -255.493     356.448
  P      320.857    -248.456     358.581
  C      320.471    -248.200     356.008
  O      320.608    -249.078     357.121
  O      319.905    -247.166     358.609
  O      320.561    -249.391     359.706
  H      319.105    -247.357     359.135
  H      320.312    -248.773     355.119
  H      321.362    -247.617     355.902
  H      319.636    -247.550     356.167

 6  7  8  9  10  11  12  13  14  15  25  28  32  33  34  35 0
 6-311+G(2d,p)
 ****
 36  37  40 0
 6-311+G(2d,p)
 ****
 1  2  3  4  5  16  17  18  19  20  21  22  23  24 0
 3-21G
 ****
 26  27  29  30  31  38  39 41  42  43  44  45  46  47  48 0
 3-21G
 ****


