%nproc=1
%NoSave
%Mem=1900MB
#P OB98/GEN NMR

erre ene a

0 1
  C     -213.233      -0.402      70.293
  O     -211.824      -0.300      70.327
  H     -213.656       0.371      70.942
  H     -213.558      -1.382      70.652
  H     -213.592      -0.239      69.268
  P     -211.006      -1.376      69.461
  C     -210.013      -2.479      71.572
  O     -210.858      -2.643      70.439
  C     -210.408      -3.454      72.684
  O     -210.541      -4.778      72.109
  C     -209.376      -3.535      73.818
  O     -210.059      -3.665      75.064
  C     -208.614      -4.815      73.513
  O     -208.033      -5.391      74.677
  C     -209.706      -5.674      72.863
  N     -208.899     -10.683      72.304
  C     -209.606      -9.979      73.216
  N     -209.779      -8.638      73.280
  C     -209.172      -8.029      72.247
  C     -208.408      -8.615      71.247
  C     -208.277     -10.010      71.305
  N     -207.537     -10.734      70.396
  N     -207.919      -7.648      70.387
  C     -208.382      -6.506      70.855
  N     -209.132      -6.679      71.985
  O     -209.737      -0.883      68.856
  O     -212.117      -1.867      68.424
  H     -207.725      -6.298      74.455
  H     -212.976      -2.020      68.862
  H     -210.086     -10.561      73.999
  H     -208.194      -5.528      70.422
  H     -210.326      -6.200      73.598
  H     -207.813      -4.601      72.797
  H     -208.717      -2.666      73.845
  H     -211.399      -3.168      73.065
  H     -210.076      -1.450      71.942
  H     -207.504     -11.742      70.507
  H     -207.080     -10.260      69.637
  H     -208.981      -2.667      71.249
  P     -210.056      -2.418      76.069
  C     -207.823      -3.075      77.203
  O     -208.538      -2.083      76.464
  O     -211.011      -2.501      77.220
  O     -210.438      -1.189      75.103
  H     -211.012      -0.572      75.585
  H     -206.830      -2.727      77.399
  H     -207.778      -3.980      76.634
  H     -208.325      -3.261      78.129

 6  7  8  9  10  11  12  13  14  15  25  28  32  33  34  35 0
 6-311+G(2d,p)
 ****
 36  39  40 0
 6-311+G(2d,p)
 ****
 1  2  3  4  5  16  17  18  19  20  21  22  23  24 0
 3-21G
 ****
 26  27  29  30  31  37  38  41  42  43  44  45  46  47 0
 3-21G
 ****
 48 0
 3-21G
 ****


