%nproc=1
%NoSave
%Mem=1900MB
#P OB98/GEN NMR

erre ene a

0 1
  C     1177.765    -568.336      11.930
  O     1177.125    -568.013      10.700
  H     1178.811    -568.040      11.861
  H     1177.711    -569.403      12.119
  H     1177.291    -567.788      12.753
  P     1175.566    -568.356      10.544
  C     1173.615    -567.405       9.142
  O     1174.968    -567.236       9.559
  C     1172.776    -566.220       9.607
  O     1172.562    -566.275      11.030
  C     1173.415    -564.855       9.328
  O     1173.197    -564.477       7.974
  C     1172.676    -563.993      10.319
  O     1171.335    -563.712       9.831
  C     1172.599    -564.929      11.550
  N     1174.257    -562.842      15.873
  C     1173.051    -562.689      15.210
  N     1172.189    -561.801      15.759
  N     1172.743    -563.302      14.111
  C     1173.735    -564.090      13.620
  C     1174.976    -564.318      14.185
  C     1175.300    -563.668      15.425
  O     1176.343    -563.796      16.057
  N     1175.737    -565.130      13.380
  C     1174.940    -565.418      12.368
  N     1173.723    -564.801      12.478
  O     1174.791    -568.518      11.826
  O     1175.542    -569.686       9.652
  H     1170.934    -563.117      10.487
  H     1175.533    -570.485      10.218
  H     1174.460    -562.318      16.706
  H     1175.214    -566.084      11.537
  H     1171.690    -564.771      12.136
  H     1173.156    -563.031      10.510
  H     1172.480    -561.103      16.427
  H     1174.479    -564.845       9.577
  H     1171.313    -561.638      15.275
  H     1171.796    -566.294       9.131
  H     1173.239    -568.334       9.580
  H     1173.565    -567.478       8.051
  P     1174.343    -563.758       7.118
  C     1174.931    -563.690       4.594
  O     1174.137    -564.300       5.607
  O     1175.737    -563.940       7.662
  O     1173.887    -562.233       7.002
  H     1174.202    -561.669       7.747
  H     1174.703    -564.133       3.647
  H     1175.967    -563.837       4.816
  H     1174.719    -562.642       4.558

 6  7  8  9  10  11  12  13  14  15  26  29  33  34 0
 6-311+G(2d,p)
 ****
 36  38  39  40  41 0
 6-311+G(2d,p)
 ****
 1  2  3  4  5  16  17  18  19  20  21  22  23  24  25 0
 3-21G
 ****
 27  28  30  31  32  35  37  42  43  44  45  46  47 0
 3-21G
 ****
 48  49 0
 3-21G
 ****


