%nproc=1
%NoSave
%Mem=1900MB
#P OB98/GEN NMR

erre ene a

0 1
  C      227.771     103.378      -3.833
  O      228.804     103.980      -4.625
  P      229.418     105.356      -4.080
  C      231.899     104.596      -3.917
  O      230.951     105.447      -4.552
  C      233.105     104.383      -4.829
  O      232.805     103.470      -5.911
  C      233.586     105.663      -5.507
  O      234.296     106.487      -4.591
  C      234.441     105.082      -6.631
  O      235.730     104.688      -6.132
  C      233.636     103.839      -7.038
  N      233.371     103.379     -12.129
  C      234.348     103.079     -11.243
  N      234.344     103.235      -9.902
  C      233.172     103.745      -9.489
  C      232.079     104.093     -10.271
  C      232.214     103.893     -11.659
  N      231.217     104.212     -12.563
  N      231.056     104.587      -9.488
  C      231.528     104.557      -8.254
  N      232.799     104.046      -8.205
  O      229.521     105.118      -2.499
  O      228.584     106.555      -4.404
  H      236.162     105.492      -5.772
  H      228.846     105.649      -2.038
  H      235.257     102.667     -11.674
  H      230.992     104.893      -7.376
  H      234.285     102.982      -7.254
  H      234.609     105.793      -7.448
  H      232.736     106.212      -5.926
  H      233.919     103.949      -4.225
  H      231.444     103.634      -3.672
  H      231.421     104.116     -13.542
  H      230.386     104.676     -12.225
  H      232.199     105.054      -2.966
  P      234.072     108.074      -4.703
  C      233.415     108.673      -2.292
  O      234.469     108.609      -3.235
  O      232.480     108.182      -4.700
  O      234.776     108.730      -5.840
  H      232.081     107.615      -4.013
  H      233.822     109.017      -1.333
  H      232.970     107.680      -2.154
  H      232.647     109.383      -2.630
  H      227.446     102.472      -4.300
  H      226.945     104.053      -3.752
  H      228.151     103.160      -2.857

 3  4  5  6  7  8  9  10  11  12  22  25  29  30  31  32 0
 6-311+G(2d,p)
 ****
 33  36  37 0
 6-311+G(2d,p)
 ****
 1  2  13  14  15  16  17  18  19  20  21  23  24  26 0
 3-21G
 ****
 27  28  34  35  38  39  40  41  42  43  44  45  46  47  48 0
 3-21G
 ****


