%nproc=1
%NoSave
%Mem=1900MB
#P OB98/GEN NMR

erre ene a

0 1
  C      -82.151       0.713     145.876
  O      -81.127       0.082     146.617
  H      -81.691       1.394     145.154
  H      -82.794       1.295     146.540
  H      -82.747      -0.024     145.330
  P      -81.522      -1.072     147.658
  C      -82.600      -3.407     147.472
  O      -82.411      -2.138     146.855
  C      -83.896      -4.043     146.972
  O      -85.036      -3.283     147.430
  C      -84.012      -4.089     145.451
  O      -83.196      -5.113     144.916
  C      -85.510      -4.303     145.296
  O      -85.861      -5.678     145.517
  C      -86.070      -3.411     146.428
  N      -86.510      -2.099     145.954
  C      -87.589      -2.094     145.073
  O      -88.156      -3.117     144.697
  N      -87.968      -0.863     144.602
  C      -87.328       0.321     144.847
  O      -87.565       1.356     144.236
  C      -86.246       0.263     145.843
  C      -85.882      -0.928     146.328
  O      -82.108      -0.604     148.950
  O      -80.145      -1.859     147.889
  H      -79.749      -1.574     148.736
  H      -85.548      -5.904     146.416
  H      -88.720      -0.854     143.924
  H      -85.754       1.191     146.115
  H      -85.065      -0.994     147.041
  H      -86.924      -3.903     146.915
  H      -85.865      -4.039     144.297
  H      -83.747      -3.116     145.022
  H      -83.969      -5.054     147.400
  H      -82.661      -3.262     148.557
  H      -81.740      -4.048     147.248
  P      -82.561      -4.985     143.452
  C      -80.862      -3.425     142.340
  O      -81.865      -3.545     143.337
  O      -83.487      -5.319     142.329
  O      -81.308      -5.989     143.477
  H      -81.379      -6.602     142.718
  H      -80.467      -2.431     142.350
  H      -81.287      -3.630     141.380
  H      -80.076      -4.123     142.539

 6  7  8  9  10  11  12  13  14  15  16  27  31  32  33  34  35 0
 6-311+G(2d,p)
 ****
 36  37 0
 6-311+G(2d,p)
 ****
 1  2  3  4  5  17  18  19  20  21  22  23  24  25 0
 3-21G
 ****
 26  28  29  30  38  39  40  41  42  43  44  45 0
 3-21G
 ****


