%nproc=1
%NoSave
%Mem=1900MB
#P OB98/GEN NMR

erre ene a

0 1
  C     -267.487     218.590     344.467
  O     -266.070     218.598     344.505
  P     -265.288     219.311     345.708
  C     -265.245     221.547     344.441
  O     -265.651     220.873     345.626
  C     -265.707     223.005     344.464
  O     -265.074     223.713     343.373
  C     -267.215     223.163     344.301
  O     -267.653     224.262     345.102
  C     -267.397     223.538     342.840
  O     -268.605     224.287     342.640
  C     -266.103     224.311     342.563
  N     -266.823     226.193     337.840
  C     -267.382     226.514     339.031
  N     -267.162     225.954     340.240
  C     -266.219     225.004     340.155
  C     -265.560     224.568     339.015
  C     -265.899     225.206     337.807
  N     -265.321     224.885     336.597
  N     -264.678     223.546     339.317
  C     -264.792     223.384     340.615
  N     -265.700     224.247     341.170
  O     -263.832     219.017     345.778
  O     -266.057     218.832     347.025
  H     -268.566     225.062     343.241
  H     -265.422     218.676     347.751
  H     -268.103     227.324     339.005
  H     -264.249     222.654     341.202
  H     -266.196     225.367     342.850
  H     -267.459     222.626     342.233
  H     -267.772     222.259     344.570
  H     -265.366     223.466     345.401
  H     -265.696     221.043     343.583
  H     -265.536     225.478     335.812
  H     -264.509     224.280     336.603
  H     -264.154     221.490     344.345
  P     -268.683     223.904     346.291
  C     -270.641     225.024     344.991
  O     -270.119     223.856     345.583
  O     -268.527     224.819     347.460
  O     -268.302     222.373     346.577
  H     -267.899     221.951     345.788
  H     -271.638     224.802     344.598
  H     -270.004     225.342     344.161
  H     -270.721     225.828     345.726
  H     -267.817     218.069     343.593
  H     -267.849     219.597     344.441
  H     -267.864     218.098     345.339

 3  4  5  6  7  8  9  10  11  12  22  25  29  30  31  32 0
 6-311+G(2d,p)
 ****
 33  36  37 0
 6-311+G(2d,p)
 ****
 1  2  13  14  15  16  17  18  19  20  21  23  24  26 0
 3-21G
 ****
 27  28  34  35  38  39  40  41  42  43  44  45  46  47  48 0
 3-21G
 ****


