%nproc=1
%NoSave
%Mem=1900MB
#P OB98/GEN NMR

erre ene a

0 1
  C      161.003    -253.692     -86.104
  O      162.109    -254.599     -86.152
  P      163.545    -254.063     -86.625
  C      164.760    -253.542     -88.829
  O      163.644    -254.174     -88.223
  C      164.494    -253.156     -90.295
  O      164.304    -254.343     -91.109
  C      163.265    -252.258     -90.495
  O      163.581    -251.357     -91.565
  C      162.203    -253.250     -90.926
  O      161.106    -252.627     -91.572
  C      163.045    -254.197     -91.799
  N      162.398    -255.477     -92.020
  C      162.191    -255.867     -93.344
  O      162.460    -255.101     -94.269
  N      161.663    -257.113     -93.587
  C      161.233    -257.834     -92.595
  N      160.729    -259.064     -92.872
  C      161.260    -257.368     -91.192
  C      161.874    -256.206     -90.975
  O      164.712    -254.618     -85.879
  O      163.419    -252.475     -86.391
  H      160.872    -251.807     -91.088
  H      164.290    -252.130     -86.112
  H      160.812    -257.958     -90.406
  H      161.960    -255.788     -89.986
  H      163.252    -253.730     -92.778
  H      161.822    -253.784     -90.044
  H      162.997    -251.673     -89.608
  H      165.393    -252.642     -90.671
  H      160.685    -259.364     -93.842
  H      165.624    -254.214     -88.783
  H      160.416    -259.706     -92.141
  H      165.038    -252.658     -88.230
  P      163.122    -249.821     -91.458
  C      161.439    -248.264     -92.696
  O      162.031    -249.547     -92.599
  O      164.404    -249.053     -92.046
  O      162.816    -249.324     -90.076
  H      164.428    -248.145     -91.676
  H      160.946    -248.177     -93.668
  H      162.195    -247.479     -92.613
  H      160.690    -248.136     -91.904
  H      160.130    -254.212     -85.770
  H      160.828    -253.291     -87.081
  H      161.225    -252.895     -85.426

 3  4  5  6  7  8  9  10  11  12  13  23  27  28  29  30  32 0
 6-311+G(2d,p)
 ****
 34  35 0
 6-311+G(2d,p)
 ****
 1  2  14  15  16  17  18  19  20  21  22  24  25  26 0
 3-21G
 ****
 31  33  36  37  38  39  40  41  42  43  44  45  46 0
 3-21G
 ****


