%nproc=1
%NoSave
%Mem=1900MB
#P OB98/GEN NMR

erre ene a

0 1
  C      378.770     219.137     451.717
  O      380.133     218.747     451.764
  H      378.442     219.130     450.671
  H      378.652     220.152     452.109
  H      378.145     218.445     452.288
  P      380.825     218.526     453.190
  C      381.186     219.986     455.288
  O      380.929     219.964     453.891
  C      382.272     221.035     455.595
  O      381.846     222.329     455.161
  C      382.602     221.153     457.083
  O      383.395     220.077     457.517
  C      383.284     222.511     457.106
  O      384.656     222.401     456.693
  C      382.456     223.303     456.055
  N      381.450     224.172     456.665
  C      381.905     225.382     457.187
  O      383.095     225.720     457.171
  N      380.950     226.200     457.744
  C      379.638     225.868     457.942
  O      378.840     226.589     458.534
  C      379.216     224.565     457.404
  C      380.126     223.790     456.810
  O      382.095     217.740     453.178
  O      379.688     217.789     454.047
  H      385.060     223.279     456.849
  H      379.912     216.844     454.146
  H      381.267     227.063     458.134
  H      378.180     224.269     457.536
  H      379.833     222.820     456.399
  H      383.117     223.923     455.438
  H      383.286     222.961     458.102
  H      381.674     221.221     457.661
  H      383.168     220.756     455.028
  H      381.530     219.000     455.593
  H      380.258     220.233     455.822
  P      383.095     219.391     458.937
  C      384.060     219.481     461.324
  O      384.154     219.983     459.995
  O      382.965     217.887     458.927
  O      381.723     220.071     459.400
  H      381.032     219.377     459.520
  H      384.808     219.943     461.934
  H      384.210     218.422     461.317
  H      383.091     219.701     461.721

 6  7  8  9  10  11  12  13  14  15  16  26  31  32  33  34  35 0
 6-311+G(2d,p)
 ****
 36  37 0
 6-311+G(2d,p)
 ****
 1  2  3  4  5  17  18  19  20  21  22  23  24  25 0
 3-21G
 ****
 27  28  29  30  38  39  40  41  42  43  44  45 0
 3-21G
 ****


