%nproc=1
%NoSave
%Mem=1900MB
#P OB98/GEN NMR

erre ene a

0 1
  C      -82.019      -3.019     -17.979
  O      -82.231      -2.078     -16.927
  P      -81.799      -2.469     -15.432
  C      -84.052      -3.265     -14.488
  O      -82.752      -3.652     -14.911
  C      -84.940      -4.471     -14.151
  O      -86.136      -4.050     -13.440
  C      -85.398      -5.277     -15.374
  O      -85.439      -6.653     -14.976
  C      -86.799      -4.744     -15.607
  O      -87.583      -5.611     -16.412
  C      -87.270      -4.568     -14.161
  N      -88.424      -3.690     -14.053
  C      -89.648      -4.183     -14.509
  O      -89.699      -5.277     -15.072
  N      -90.771      -3.410     -14.341
  C      -90.651      -2.196     -13.900
  N      -91.789      -1.469     -13.730
  C      -89.350      -1.580     -13.580
  C      -88.295      -2.384     -13.654
  O      -81.645      -1.322     -14.489
  O      -80.398      -3.220     -15.654
  H      -88.531      -5.391     -16.288
  H      -79.812      -3.023     -14.897
  H      -89.293      -0.540     -13.294
  H      -87.299      -2.029     -13.432
  H      -87.526      -5.538     -13.714
  H      -86.742      -3.773     -16.113
  H      -84.735      -5.174     -16.237
  H      -84.375      -5.125     -13.474
  H      -92.672      -1.897     -13.977
  H      -84.527      -2.682     -15.281
  H      -91.784      -0.535     -13.341
  H      -83.962      -2.591     -13.628
  P      -84.081      -7.508     -14.996
  C      -84.459      -8.716     -17.266
  O      -83.696      -7.787     -16.526
  O      -84.598      -8.952     -14.515
  O      -82.989      -7.030     -14.096
  H      -83.851      -9.436     -14.116
  H      -84.248      -8.573     -18.330
  H      -85.531      -8.570     -17.104
  H      -84.179      -9.735     -16.985
  H      -82.360      -2.603     -18.904
  H      -82.563      -3.917     -17.770
  H      -80.975      -3.243     -18.052

 3  4  5  6  7  8  9  10  11  12  13  23  27  28  29  30  32 0
 6-311+G(2d,p)
 ****
 34  35 0
 6-311+G(2d,p)
 ****
 1  2  14  15  16  17  18  19  20  21  22  24  25  26 0
 3-21G
 ****
 31  33  36  37  38  39  40  41  42  43  44  45  46 0
 3-21G
 ****


