%nproc=1
%NoSave
%Mem=1900MB
#P OB98/GEN NMR

erre ene a

0 1
  C     -676.290    -748.678    1475.913
  O     -677.141    -749.123    1474.857
  P     -676.806    -750.265    1473.800
  C     -677.143    -748.885    1471.562
  O     -677.557    -749.937    1472.426
  C     -678.094    -748.715    1470.377
  O     -678.421    -750.008    1469.818
  C     -679.431    -748.059    1470.777
  O     -679.902    -747.079    1469.865
  C     -680.356    -749.247    1471.039
  O     -681.710    -748.957    1470.994
  C     -679.821    -750.238    1469.982
  N     -680.272    -755.117    1468.440
  C     -680.089    -753.969    1467.686
  N     -680.038    -754.138    1466.333
  N     -679.989    -752.761    1468.194
  C     -680.155    -752.753    1469.537
  C     -680.336    -753.805    1470.383
  C     -680.381    -755.132    1469.828
  O     -680.552    -756.183    1470.439
  N     -680.415    -753.385    1471.704
  C     -680.295    -752.077    1471.634
  N     -680.123    -751.644    1470.320
  O     -676.897    -751.657    1474.297
  O     -675.255    -749.982    1473.403
  H     -682.203    -749.742    1471.393
  H     -674.869    -750.857    1473.212
  H     -680.319    -756.018    1468.012
  H     -680.317    -751.396    1472.474
  H     -680.310    -750.104    1469.010
  H     -680.121    -749.643    1472.054
  H     -680.237    -755.014    1465.861
  H     -679.323    -747.482    1471.721
  H     -680.141    -753.268    1465.788
  H     -677.568    -748.108    1469.603
  H     -676.142    -749.179    1471.205
  H     -677.036    -747.954    1472.138
  P     -679.666    -745.488    1469.869
  C     -682.094    -744.776    1470.366
  O     -680.985    -744.751    1469.400
  O     -678.649    -745.208    1468.622
  O     -679.060    -744.951    1471.154
  H     -677.806    -744.851    1468.967
  H     -683.007    -744.481    1469.826
  H     -681.862    -744.043    1471.154
  H     -682.210    -745.770    1470.786
  H     -676.779    -747.900    1476.462
  H     -675.376    -748.303    1475.501
  H     -676.077    -749.497    1476.568

 3  4  5  6  7  8  9  10  11  12  23  26  30  31 0
 6-311+G(2d,p)
 ****
 33  35  36  37  38 0
 6-311+G(2d,p)
 ****
 1  2  13  14  15  16  17  18  19  20  21  22  24  25 0
 3-21G
 ****
 27  28  29  32  34  39  40  41  42  43  44  45  46  47  48  49 0
 3-21G
 ****


