%nproc=1
%NoSave
%Mem=1900MB
#P OB98/GEN NMR

erre ene a

0 1
  C      -96.365    -152.021     -36.372
  O      -96.897    -150.864     -36.985
  H      -95.411    -152.260     -36.850
  H      -97.040    -152.871     -36.497
  H      -96.185    -151.838     -35.310
  P      -98.358    -150.370     -36.539
  C      -99.523    -151.693     -38.440
  O      -99.340    -151.542     -37.041
  C     -100.932    -152.202     -38.736
  O     -101.164    -153.481     -38.108
  C     -102.058    -151.308     -38.226
  O     -102.235    -150.129     -38.993
  C     -103.231    -152.267     -38.350
  O     -103.624    -152.370     -39.729
  C     -102.594    -153.589     -37.855
  N     -102.844    -153.848     -36.438
  C     -103.680    -154.930     -36.137
  O     -104.169    -155.612     -37.037
  N     -103.977    -155.192     -34.821
  C     -103.496    -154.430     -33.889
  N     -103.858    -154.705     -32.604
  C     -102.597    -153.292     -34.160
  C     -102.319    -153.056     -35.440
  O      -98.746    -148.988     -36.959
  O      -98.384    -150.585     -34.954
  H     -104.178    -151.593     -39.927
  H      -99.266    -150.282     -34.626
  H     -102.230    -152.683     -33.345
  H     -101.679    -152.227     -35.720
  H     -102.959    -154.440     -38.441
  H     -104.111    -151.948     -37.783
  H     -101.914    -151.067     -37.167
  H     -101.004    -152.361     -39.821
  H     -104.509    -155.465     -32.461
  H      -98.767    -152.392     -38.809
  H     -103.760    -154.012     -31.869
  H      -99.392    -150.730     -38.943
  P     -102.612    -148.776     -38.215
  C     -105.137    -149.390     -38.410
  O     -104.062    -149.005     -37.568
  O     -102.888    -147.745     -39.407
  O     -101.584    -148.276     -37.250
  H     -102.086    -147.229     -39.619
  H     -106.026    -149.500     -37.825
  H     -104.904    -150.321     -38.883
  H     -105.292    -148.639     -39.157

 6  7  8  9  10  11  12  13  14  15  16  26  30  31  32  33  35 0
 6-311+G(2d,p)
 ****
 37  38 0
 6-311+G(2d,p)
 ****
 1  2  3  4  5  17  18  19  20  21  22  23  24  25 0
 3-21G
 ****
 27  28  29  34  36  39  40  41  42  43  44  45  46 0
 3-21G
 ****


