%nproc=1
%NoSave
%Mem=1900MB
#P OB98/GEN NMR

erre ene a

0 1
  C     -157.875     157.051     295.378
  O     -156.993     157.987     295.943
  P     -156.598     159.371     295.246
  C     -155.221     160.518     297.154
  O     -155.218     159.885     295.880
  C     -153.840     161.092     297.490
  O     -152.905     159.992     297.621
  C     -153.312     161.999     296.361
  O     -152.670     163.181     296.818
  C     -152.491     161.038     295.514
  O     -151.540     161.688     294.678
  C     -151.914     160.104     296.575
  N     -148.994     157.318     293.482
  C     -148.865     158.647     293.836
  N     -147.948     159.360     293.147
  N     -149.585     159.220     294.763
  C     -150.539     158.411     295.288
  C     -150.757     157.078     295.016
  C     -149.929     156.446     294.019
  O     -150.084     155.309     293.589
  N     -151.853     156.597     295.692
  C     -152.311     157.642     296.348
  N     -151.559     158.774     296.108
  O     -157.701     160.362     295.067
  O     -156.134     158.878     293.781
  H     -150.926     162.182     295.254
  H     -156.391     159.580     293.150
  H     -148.458     156.952     292.699
  H     -153.191     157.651     296.981
  H     -151.001     160.516     297.014
  H     -153.177     160.500     294.857
  H     -147.483     158.984     292.334
  H     -154.146     162.377     295.758
  H     -148.007     160.375     293.206
  H     -153.887     161.604     298.457
  H     -155.495     159.740     297.878
  H     -155.985     161.299     297.197
  P     -153.284     164.646     296.999
  C     -152.098     166.078     298.761
  O     -152.106     165.643     297.417
  O     -154.174     164.563     298.326
  O     -154.113     165.114     295.848
  H     -154.991     165.084     298.200
  H     -151.438     166.948     298.848
  H     -151.727     165.280     299.403
  H     -153.105     166.373     299.085
  H     -157.975     156.213     296.035
  H     -157.490     156.721     294.436
  H     -158.832     157.506     295.232

 3  4  5  6  7  8  9  10  11  12  23  26  30  31 0
 6-311+G(2d,p)
 ****
 33  35  36  37  38 0
 6-311+G(2d,p)
 ****
 1  2  13  14  15  16  17  18  19  20  21  22  24  25 0
 3-21G
 ****
 27  28  29  32  34  39  40  41  42  43  44  45  46  47  48  49 0
 3-21G
 ****


