%nproc=1
%NoSave
%Mem=1900MB
#P OB98/GEN NMR

erre ene a

0 1
  C      284.003     157.406      32.178
  O      282.886     156.574      31.941
  H      283.771     158.413      31.823
  H      284.869     157.030      31.629
  H      284.227     157.449      33.246
  P      282.981     155.063      32.473
  C      281.859     155.679      34.728
  O      283.004     155.148      34.078
  C      281.181     154.612      35.585
  O      282.135     154.132      36.581
  C      279.937     155.105      36.343
  O      278.998     154.024      36.402
  C      280.470     155.347      37.746
  O      279.441     155.334      38.732
  C      281.470     154.198      37.857
  N      282.391     153.090      42.677
  C      281.365     152.687      41.845
  N      280.441     151.858      42.375
  N      281.257     153.060      40.597
  C      282.271     153.863      40.189
  C      283.337     154.337      40.914
  C      283.430     153.937      42.302
  O      284.303     154.277      43.094
  N      284.133     155.151      40.145
  C      283.549     155.164      38.961
  N      282.415     154.398      38.938
  O      284.481     154.653      32.095
  O      281.980     154.117      31.898
  H      278.857     156.104      38.568
  H      284.501     154.208      31.227
  H      282.420     152.784      43.634
  H      283.900     155.709      38.096
  H      280.979     153.235      38.039
  H      280.980     156.317      37.795
  H      280.485     151.491      43.312
  H      279.462     155.987      35.904
  H      279.705     151.516      41.767
  H      280.935     153.757      34.947
  H      281.152     156.031      33.969
  H      282.159     156.526      35.354
  P      277.493     154.309      35.933
  C      277.169     152.896      33.774
  O      277.435     154.172      34.338
  O      277.344     155.889      36.156
  O      276.459     153.546      36.691
  H      276.412     156.113      36.329
  H      277.164     152.972      32.707
  H      276.215     152.549      34.112
  H      277.928     152.206      34.079

 6  7  8  9  10  11  12  13  14  15  26  29  33  34 0
 6-311+G(2d,p)
 ****
 36  38  39  40  41 0
 6-311+G(2d,p)
 ****
 1  2  3  4  5  16  17  18  19  20  21  22  23  24  25 0
 3-21G
 ****
 27  28  30  31  32  35  37  42  43  44  45  46  47 0
 3-21G
 ****
 48  49 0
 3-21G
 ****


