%nproc=1
%NoSave
%Mem=1900MB
#P OB98/GEN NMR

erre ene a

0 1
  C      -72.284      91.205    -184.655
  O      -71.628      92.022    -183.705
  H      -72.471      91.772    -185.571
  H      -71.642      90.353    -184.891
  H      -73.229      90.834    -184.247
  P      -72.412      93.344    -183.244
  C      -72.259      95.863    -183.813
  O      -71.891      94.542    -184.180
  C      -72.020      96.816    -184.983
  O      -70.587      96.949    -185.171
  C      -72.636      96.349    -186.311
  O      -73.404      97.402    -186.911
  C      -71.437      96.061    -187.196
  O      -71.670      96.366    -188.565
  C      -70.354      96.944    -186.586
  N      -66.985      96.204    -190.341
  C      -68.050      97.026    -190.248
  N      -68.850      97.247    -189.186
  C      -68.436      96.536    -188.121
  C      -67.354      95.671    -188.058
  C      -66.619      95.497    -189.244
  N      -65.567      94.618    -189.355
  N      -67.245      95.113    -186.798
  C      -68.273      95.596    -186.128
  N      -69.027      96.449    -186.889
  O      -71.765      93.672    -181.813
  O      -73.892      93.187    -183.151
  H      -72.104      95.593    -188.967
  H      -72.465      93.633    -181.135
  H      -68.299      97.580    -191.152
  H      -68.538      95.331    -185.113
  H      -70.424      97.979    -186.940
  H      -71.178      94.999    -187.115
  H      -73.266      95.463    -186.193
  H      -72.402      97.809    -184.710
  H      -71.655      96.189    -182.959
  H      -65.170      94.469    -190.270
  H      -65.362      94.009    -188.572
  H      -73.315      95.874    -183.523
  P      -74.750      96.954    -187.667
  C      -75.585      97.153    -190.121
  O      -74.471      97.005    -189.250
  O      -75.741      98.185    -187.407
  O      -75.328      95.674    -187.163
  H      -76.559      97.868    -186.981
  H      -75.245      97.170    -191.135
  H      -76.092      98.069    -189.899
  H      -76.256      96.331    -189.984

 6  7  8  9  10  11  12  13  14  15  25  28  32  33  34  35 0
 6-311+G(2d,p)
 ****
 36  39  40 0
 6-311+G(2d,p)
 ****
 1  2  3  4  5  16  17  18  19  20  21  22  23  24 0
 3-21G
 ****
 26  27  29  30  31  37  38  41  42  43  44  45  46  47  48 0
 3-21G
 ****


