%nproc=1
%NoSave
%Mem=1900MB
#P OB98/GEN NMR

erre ene a

0 1
  C     -163.391     153.593      77.262
  O     -162.198     154.008      77.897
  H     -164.034     154.465      77.120
  H     -163.914     152.869      77.890
  H     -163.171     153.152      76.286
  P     -161.068     152.891      78.119
  C     -159.738     151.868      76.140
  O     -160.039     153.036      76.891
  C     -158.723     152.180      75.041
  O     -159.305     153.154      74.125
  C     -157.398     152.769      75.553
  O     -156.343     152.282      74.714
  C     -157.563     154.258      75.290
  O     -156.316     154.944      75.221
  C     -158.339     154.214      73.974
  N     -157.546     158.784      72.023
  C     -156.700     157.696      72.133
  N     -155.448     157.848      71.651
  N     -157.051     156.558      72.671
  C     -158.343     156.537      73.083
  C     -159.278     157.545      73.035
  C     -158.866     158.811      72.461
  O     -159.564     159.815      72.352
  N     -160.470     157.137      73.581
  C     -160.255     155.889      73.954
  N     -158.980     155.479      73.675
  O     -161.852     151.533      77.797
  O     -160.445     152.870      79.475
  H     -155.845     154.797      76.066
  H     -162.208     151.144      78.619
  H     -157.220     159.642      71.611
  H     -160.980     155.243      74.435
  H     -157.695     153.973      73.118
  H     -158.164     154.718      76.085
  H     -155.122     158.677      71.181
  H     -157.175     152.538      76.600
  H     -154.827     157.046      71.682
  H     -158.547     151.269      74.460
  H     -160.660     151.494      75.682
  H     -159.337     151.103      76.812
  P     -155.935     150.738      74.834
  C     -156.364     149.002      72.944
  O     -156.926     149.887      73.903
  O     -156.423     150.356      76.314
  O     -154.478     150.471      74.647
  H     -155.875     149.631      76.665
  H     -157.149     148.512      72.407
  H     -155.763     148.271      73.443
  H     -155.756     149.557      72.260

 6  7  8  9  10  11  12  13  14  15  26  29  33  34 0
 6-311+G(2d,p)
 ****
 36  38  39  40  41 0
 6-311+G(2d,p)
 ****
 1  2  3  4  5  16  17  18  19  20  21  22  23  24  25 0
 3-21G
 ****
 27  28  30  31  32  35  37  42  43  44  45  46  47 0
 3-21G
 ****
 48  49 0
 3-21G
 ****


