%nproc=1
%NoSave
%Mem=1900MB
#P OB98/GEN NMR

erre ene a

0 1
  C      123.680      68.551    -184.666
  O      123.098      67.333    -184.234
  P      122.627      67.227    -182.701
  C      120.177      66.510    -183.220
  O      121.432      66.158    -182.660
  C      119.311      65.264    -183.422
  O      119.832      64.519    -184.553
  C      119.275      64.306    -182.226
  O      117.979      63.695    -182.220
  C      120.323      63.271    -182.585
  O      120.145      62.042    -181.888
  C      120.130      63.182    -184.094
  N      121.868      60.219    -187.805
  C      120.574      60.400    -187.351
  N      119.607      59.743    -188.022
  N      120.261      61.159    -186.333
  C      121.334      61.766    -185.772
  C      122.661      61.635    -186.106
  C      122.990      60.824    -187.255
  O      124.111      60.703    -187.745
  N      123.466      62.336    -185.248
  C      122.621      62.956    -184.450
  N      121.317      62.678    -184.756
  O      121.894      68.625    -182.457
  O      123.714      66.965    -181.706
  H      120.291      62.214    -180.935
  H      122.507      69.282    -182.072
  H      122.047      59.636    -188.606
  H      122.893      63.616    -183.641
  H      119.291      62.530    -184.373
  H      121.321      63.654    -182.338
  H      119.772      59.167    -188.833
  H      119.471      64.794    -181.268
  H      118.646      59.884    -187.730
  H      118.297      65.588    -183.685
  H      120.344      66.979    -184.195
  H      119.674      67.232    -182.570
  P      117.036      63.948    -180.949
  C      115.070      64.613    -182.498
  O      115.520      63.799    -181.433
  O      117.189      65.527    -180.703
  O      117.415      63.182    -179.724
  H      117.110      65.717    -179.750
  H      114.203      64.138    -182.962
  H      115.846      64.747    -183.258
  H      114.772      65.589    -182.107
  H      123.942      68.474    -185.701
  H      124.559      68.750    -184.090
  H      122.979      69.348    -184.534

 3  4  5  6  7  8  9  10  11  12  23  26  30  31 0
 6-311+G(2d,p)
 ****
 33  35  36  37  38 0
 6-311+G(2d,p)
 ****
 1  2  13  14  15  16  17  18  19  20  21  22  24  25 0
 3-21G
 ****
 27  28  29  32  34  39  40  41  42  43  44  45  46  47  48  49 0
 3-21G
 ****


