%nproc=1
%NoSave
%Mem=1900MB
#P OB98/GEN NMR

erre ene a

0 1
  C      486.699    -523.826     304.601
  O      485.807    -524.799     305.105
  H      486.415    -522.851     305.004
  H      486.644    -523.788     303.512
  H      487.720    -524.054     304.915
  P      485.986    -526.295     304.543
  C      485.451    -527.023     306.988
  O      485.187    -527.196     305.605
  C      484.311    -527.601     307.819
  O      484.116    -529.002     307.505
  C      484.537    -527.559     309.326
  O      484.319    -526.277     309.891
  C      483.491    -528.561     309.779
  O      482.183    -527.963     309.693
  C      483.672    -529.668     308.717
  N      484.638    -530.697     309.123
  C      484.205    -531.613     310.089
  O      483.074    -531.538     310.565
  N      485.087    -532.575     310.526
  C      486.280    -532.635     310.025
  N      487.107    -533.607     310.498
  C      486.769    -531.698     308.994
  C      485.908    -530.769     308.595
  O      487.515    -526.633     304.874
  O      485.598    -526.510     303.115
  H      482.069    -527.432     310.501
  H      487.691    -527.594     304.700
  H      487.781    -531.778     308.613
  H      486.196    -530.044     307.840
  H      482.713    -530.156     308.489
  H      483.623    -528.893     310.808
  H      485.529    -527.936     309.596
  H      483.396    -527.072     307.539
  H      486.761    -534.196     311.244
  H      485.556    -525.947     307.186
  H      488.096    -533.643     310.282
  H      486.388    -527.523     307.256
  P      485.583    -525.532     310.550
  C      484.645    -523.229     309.799
  O      485.128    -524.032     310.868
  O      486.589    -525.370     309.319
  O      486.213    -526.265     311.690
  H      487.519    -525.442     309.612
  H      484.383    -522.260     310.171
  H      483.781    -523.691     309.368
  H      485.407    -523.131     309.054

 6  7  8  9  10  11  12  13  14  15  16  26  30  31  32  33  35 0
 6-311+G(2d,p)
 ****
 37  38 0
 6-311+G(2d,p)
 ****
 1  2  3  4  5  17  18  19  20  21  22  23  24  25 0
 3-21G
 ****
 27  28  29  34  36  39  40  41  42  43  44  45  46 0
 3-21G
 ****


