%nproc=1
%NoSave
%Mem=1900MB
#P OB98/GEN NMR

erre ene a

0 1
  C      -96.645      38.421    -101.637
  O      -96.364      38.446    -100.231
  P      -95.676      37.155     -99.578
  C      -93.405      37.902     -98.549
  O      -94.083      37.328     -99.657
  C      -93.145      39.391     -98.791
  O      -94.373      40.128     -98.960
  C      -92.417      40.079     -97.647
  O      -91.015      39.862     -97.715
  C      -92.738      41.539     -97.927
  O      -91.873      42.039     -98.966
  C      -94.183      41.461     -98.433
  N      -97.558      44.833     -96.569
  C      -96.683      44.906     -97.597
  N      -95.805      43.973     -98.021
  C      -95.895      42.863     -97.273
  C      -96.735      42.642     -96.195
  C      -97.599      43.691     -95.843
  N      -98.489      43.609     -94.796
  N      -96.536      41.383     -95.668
  C      -95.601      40.847     -96.426
  N      -95.176      41.706     -97.403
  O      -95.972      36.005    -100.652
  O      -96.213      36.798     -98.232
  H      -90.958      41.949     -98.642
  H      -96.107      35.154    -100.195
  H      -96.690      45.839     -98.153
  H      -95.205      39.847     -96.308
  H      -94.378      42.169     -99.247
  H      -92.587      42.178     -97.053
  H      -92.836      39.780     -96.678
  H      -92.556      39.486     -99.713
  H      -92.460      37.379     -98.376
  H      -99.097      44.392     -94.621
  H      -98.540      42.751     -94.266
  H      -94.008      37.751     -97.647
  P      -90.414      38.664     -96.833
  C      -89.447      37.210     -98.755
  O      -90.453      37.371     -97.775
  O      -91.568      38.398     -95.756
  O      -89.105      38.970     -96.188
  H      -91.179      38.070     -94.923
  H      -89.441      36.168     -99.085
  H      -88.461      37.455     -98.353
  H      -89.663      37.851     -99.614
  H      -97.100      39.345    -101.926
  H      -97.311      37.612    -101.853
  H      -95.733      38.287    -102.181

 3  4  5  6  7  8  9  10  11  12  22  25  29  30  31  32 0
 6-311+G(2d,p)
 ****
 33  36  37 0
 6-311+G(2d,p)
 ****
 1  2  13  14  15  16  17  18  19  20  21  23  24  26 0
 3-21G
 ****
 27  28  34  35  38  39  40  41  42  43  44  45  46  47  48 0
 3-21G
 ****


