%nproc=1
%NoSave
%Mem=1900MB
#P OB98/GEN NMR

erre ene a

0 1
  C       18.306       9.173      18.663
  O       19.508       9.641      19.239
  H       17.616      10.013      18.553
  H       17.847       8.423      19.311
  H       18.497       8.742      17.676
  P       20.706       8.587      19.383
  C       21.204       9.119      21.883
  O       21.665       9.151      20.541
  C       21.775      10.308      22.656
  O       23.222      10.176      22.704
  C       21.459      11.661      22.008
  O       21.235      12.629      23.037
  C       22.736      11.994      21.258
  O       22.911      13.383      21.014
  C       23.790      11.402      22.200
  N       25.062      11.146      21.528
  C       26.226      11.489      22.207
  O       26.264      11.922      23.358
  N       27.392      11.318      21.506
  C       27.503      10.873      20.222
  O       28.575      10.763      19.640
  C       26.238      10.534      19.554
  C       25.095      10.685      20.226
  O       21.566       8.821      18.053
  O       20.298       7.164      19.558
  H       21.253       8.236      17.337
  H       22.225      13.666      20.376
  H       28.245      11.561      21.985
  H       26.285      10.186      18.531
  H       24.144      10.458      19.757
  H       23.952      12.066      23.058
  H       22.748      11.478      20.291
  H       20.596      11.623      21.343
  H       21.412      10.269      23.689
  H       21.535       8.189      22.354
  H       20.109       9.153      21.889
  P       19.713      12.905      23.472
  C       19.380      14.961      21.893
  O       19.461      14.470      23.219
  O       19.809      12.767      25.060
  O       18.743      11.984      22.811
  H       20.637      13.117      25.430
  H       19.210      16.017      21.914
  H       18.572      14.480      21.383
  H       20.297      14.757      21.381

 6  7  8  9  10  11  12  13  14  15  16  27  31  32  33  34  35 0
 6-311+G(2d,p)
 ****
 36  37 0
 6-311+G(2d,p)
 ****
 1  2  3  4  5  17  18  19  20  21  22  23  24  25 0
 3-21G
 ****
 26  28  29  30  38  39  40  41  42  43  44  45 0
 3-21G
 ****


