%nproc=1
%NoSave
%Mem=1900MB
#P OB98/GEN NMR

erre ene a

0 1
  C       48.397    -764.564     458.676
  O       47.834    -763.273     458.918
  P       46.473    -762.939     458.124
  C       47.221    -761.143     456.416
  O       46.559    -761.413     457.638
  C       47.324    -759.629     456.158
  O       45.999    -759.057     455.949
  C       47.974    -758.856     457.316
  O       48.725    -757.780     456.734
  C       46.760    -758.320     458.063
  O       47.070    -757.267     458.964
  C       45.866    -757.953     456.877
  N       42.254    -754.420     457.610
  C       43.554    -754.324     457.258
  N       44.463    -755.315     457.091
  C       43.889    -756.510     457.309
  C       42.576    -756.771     457.669
  C       41.734    -755.655     457.820
  N       40.414    -755.736     458.199
  N       42.372    -758.135     457.833
  C       43.563    -758.672     457.635
  N       44.488    -757.742     457.242
  O       45.361    -762.922     459.278
  O       46.160    -763.927     457.047
  H       47.288    -756.458     458.462
  H       44.873    -763.766     459.292
  H       43.935    -753.312     457.103
  H       43.812    -759.718     457.773
  H       46.215    -757.045     456.369
  H       46.313    -759.129     458.651
  H       48.641    -759.460     457.935
  H       47.902    -759.472     455.234
  H       46.687    -761.607     455.581
  H       39.891    -754.880     458.280
  H       39.988    -756.646     458.376
  H       48.219    -761.601     456.430
  P       50.295    -757.976     456.494
  C       50.472    -755.422     456.677
  O       50.789    -756.565     455.896
  O       50.280    -758.874     455.152
  O       51.077    -758.567     457.618
  H       49.698    -758.491     454.481
  H       50.930    -754.544     456.214
  H       50.863    -755.532     457.696
  H       49.383    -755.280     456.707
  H       49.292    -764.676     459.251
  H       48.627    -764.664     457.636
  H       47.694    -765.319     458.960

 3  4  5  6  7  8  9  10  11  12  22  25  29  30  31  32 0
 6-311+G(2d,p)
 ****
 33  36  37 0
 6-311+G(2d,p)
 ****
 1  2  13  14  15  16  17  18  19  20  21  23  24  26 0
 3-21G
 ****
 27  28  34  35  38  39  40  41  42  43  44  45  46  47  48 0
 3-21G
 ****


