%nproc=1
%NoSave
%Mem=1900MB
#P OB98/GEN NMR

erre ene a

0 1
  C       91.473     314.769     -80.631
  O       92.156     315.945     -81.025
  H       90.968     314.349     -81.503
  H       90.725     315.006     -79.867
  H       92.180     314.032     -80.242
  P       92.986     316.710     -79.885
  C       91.446     318.791     -79.644
  O       91.922     317.586     -79.060
  C       90.686     319.603     -78.598
  O       89.490     318.890     -78.203
  C       91.466     319.833     -77.311
  O       92.424     320.868     -77.436
  C       90.340     320.162     -76.342
  O       89.962     321.542     -76.430
  C       89.200     319.265     -76.837
  N       86.820     317.321     -72.761
  C       86.707     318.511     -73.387
  N       87.369     318.948     -74.480
  C       88.204     318.000     -74.939
  C       88.421     316.741     -74.406
  C       87.681     316.407     -73.262
  N       87.813     315.202     -72.604
  N       89.384     316.067     -75.132
  C       89.737     316.902     -76.092
  N       89.045     318.079     -76.015
  O       93.818     317.798     -80.714
  O       93.873     315.841     -79.058
  H       89.129     321.631     -75.929
  H       94.732     317.481     -80.841
  H       85.998     319.210     -72.953
  H       90.481     316.701     -76.851
  H       88.236     319.787     -76.840
  H       90.643     319.966     -75.314
  H       91.947     318.900     -76.989
  H       90.382     320.559     -79.047
  H       90.772     318.552     -80.473
  H       92.298     319.363     -80.030
  H       87.302     315.056     -71.753
  H       88.534     314.559     -72.905
  P       93.467     321.066     -76.237
  C       92.603     323.517     -76.012
  O       92.954     322.307     -75.358
  O       94.778     321.633     -76.960
  O       93.753     319.831     -75.454
  H       95.578     321.284     -76.516
  H       92.285     324.236     -75.286
  H       91.807     323.331     -76.703
  H       93.453     323.896     -76.540

 6  7  8  9  10  11  12  13  14  15  25  28  32  33  34  35 0
 6-311+G(2d,p)
 ****
 36  37  40 0
 6-311+G(2d,p)
 ****
 1  2  3  4  5  16  17  18  19  20  21  22  23  24 0
 3-21G
 ****
 26  27  29  30  31  38  39 41  42  43  44  45  46  47  48 0
 3-21G
 ****


