%nproc=1
%NoSave
%Mem=1900MB
#P OB98/GEN NMR

erre ene a

0 1
  C      781.897    1372.340     443.852
  O      782.798    1371.410     443.305
  H      781.037    1371.797     444.252
  H      781.548    1373.034     443.084
  H      782.351    1372.900     444.676
  P      784.231    1371.991     442.855
  C      785.430    1370.289     444.417
  O      785.299    1370.812     443.108
  C      786.572    1369.255     444.470
  O      786.142    1368.028     443.811
  C      787.848    1369.707     443.773
  O      788.634    1370.514     444.606
  C      788.507    1368.352     443.532
  O      789.104    1367.884     444.777
  C      787.315    1367.483     443.145
  N      786.897    1364.465     439.077
  C      787.174    1364.136     440.404
  N      787.411    1362.843     440.674
  N      787.257    1365.045     441.367
  C      787.013    1366.295     440.948
  C      786.720    1366.737     439.662
  C      786.637    1365.751     438.613
  O      786.369    1365.964     437.451
  N      786.544    1368.093     439.633
  C      786.747    1368.490     440.890
  N      787.057    1367.428     441.710
  O      784.581    1373.059     444.001
  O      784.274    1372.624     441.503
  H      789.708    1367.157     444.542
  H      785.052    1373.813     443.606
  H      786.863    1363.750     438.385
  H      786.676    1369.504     441.227
  H      787.416    1366.442     443.493
  H      789.320    1368.392     442.812
  H      787.414    1362.114     439.951
  H      787.628    1370.173     442.787
  H      787.606    1362.578     441.640
  H      786.759    1369.027     445.527
  H      784.491    1369.813     444.707
  H      785.630    1371.121     445.117
  P      789.080    1371.973     444.016
  C      787.607    1373.379     445.648
  O      788.939    1372.997     445.254
  O      787.869    1372.349     443.055
  O      790.395    1371.977     443.322
  H      788.178    1372.995     442.377
  H      787.660    1374.056     446.475
  H      787.056    1372.508     445.936
  H      787.115    1373.857     444.826

 6  7  8  9  10  11  12  13  14  15  26  29  33  34 0
 6-311+G(2d,p)
 ****
 36  38  39  40  41 0
 6-311+G(2d,p)
 ****
 1  2  3  4  5  16  17  18  19  20  21  22  23  24  25 0
 3-21G
 ****
 27  28  30  31  32  35  37  42  43  44  45  46  47 0
 3-21G
 ****
 48  49 0
 3-21G
 ****


