%nproc=1
%NoSave
%Mem=1900MB
#P OB98/GEN NMR

erre ene a

0 1
  C      130.061    -584.016     757.965
  O      131.483    -583.930     758.086
  P      132.467    -584.460     756.933
  C      133.360    -586.550     758.137
  O      132.643    -586.067     757.014
  C      134.426    -587.603     757.773
  O      135.311    -587.860     758.909
  C      133.862    -588.968     757.323
  O      134.806    -589.492     756.375
  C      133.902    -589.768     758.621
  O      133.828    -591.175     758.412
  C      135.214    -589.270     759.226
  N      136.935    -592.364     762.910
  C      137.182    -592.344     761.579
  N      136.705    -591.470     760.675
  C      135.953    -590.531     761.264
  C      135.614    -590.434     762.605
  C      136.142    -591.414     763.458
  N      135.866    -591.463     764.802
  N      134.804    -589.333     762.814
  C      134.622    -588.807     761.636
  N      135.301    -589.478     760.661
  O      133.772    -583.718     756.838
  O      131.628    -584.249     755.571
  H      133.891    -591.600     759.283
  H      132.207    -583.851     754.899
  H      137.831    -593.132     761.218
  H      133.987    -587.932     761.420
  H      136.074    -589.772     758.755
  H      133.040    -589.475     759.237
  H      132.866    -588.896     756.880
  H      135.052    -587.173     756.987
  H      132.652    -586.990     758.877
  H      136.204    -592.279     765.301
  H      135.168    -590.846     765.188
  H      133.853    -585.686     758.641
  P      134.449    -589.572     754.818
  C      133.512    -591.948     755.050
  O      133.241    -590.604     754.666
  O      135.630    -589.870     753.940
  O      133.791    -588.157     754.449
  H      133.829    -588.009     753.499
  H      134.101    -592.451     754.269
  H      132.555    -592.486     755.179
  H      134.047    -591.985     756.000
  H      129.603    -583.607     758.841
  H      129.774    -585.041     757.857
  H      129.742    -583.464     757.106

 3  4  5  6  7  8  9  10  11  12  22  25  29  30  31  32 0
 6-311+G(2d,p)
 ****
 33  36  37 0
 6-311+G(2d,p)
 ****
 1  2  13  14  15  16  17  18  19  20  21  23  24  26 0
 3-21G
 ****
 27  28  34  35  38  39  40  41  42  43  44  45  46  47  48 0
 3-21G
 ****


