%nproc=1
%NoSave
%Mem=1900MB
#P OB98/GEN NMR

erre ene a

0 1
  C     -225.307     -76.440     224.245
  O     -225.367     -77.112     225.493
  P     -226.737     -77.023     226.326
  C     -227.866     -79.116     225.198
  O     -227.852     -77.712     225.403
  C     -229.188     -79.708     225.692
  O     -229.286     -79.565     227.125
  C     -230.432     -79.036     225.130
  O     -230.698     -79.443     223.796
  C     -231.485     -79.466     226.145
  O     -231.929     -80.803     225.868
  C     -230.686     -79.433     227.463
  N     -230.927     -78.229     228.255
  C     -231.112     -78.421     229.621
  O     -231.079     -79.526     230.158
  N     -231.358     -77.287     230.354
  C     -231.497     -76.023     229.856
  O     -231.761     -75.051     230.553
  C     -231.324     -75.890     228.402
  C     -231.052     -76.980     227.681
  O     -227.039     -75.454     226.227
  O     -226.617     -77.559     227.711
  H     -226.649     -75.061     225.426
  H     -232.768     -80.922     226.357
  H     -231.470     -77.398     231.350
  H     -231.437     -74.904     227.970
  H     -230.930     -76.902     226.608
  H     -230.930     -80.305     228.079
  H     -232.369     -78.820     226.138
  H     -230.314     -77.946     225.163
  H     -229.192     -80.781     225.458
  H     -227.035     -79.566     225.751
  H     -227.729     -79.321     224.131
  P     -231.504     -78.403     222.874
  C     -229.798     -76.424     222.810
  O     -231.012     -76.944     223.307
  O     -232.978     -78.523     223.486
  O     -231.417     -78.705     221.412
  H     -232.980     -78.558     224.458
  H     -229.810     -75.336     222.917
  H     -229.659     -76.675     221.754
  H     -228.963     -76.825     223.393
  H     -224.342     -76.586     223.807
  H     -225.476     -75.394     224.395
  H     -226.058     -76.833     223.592

 3  4  5  6  7  8  9  10  11  12  13  24  28  29  30  31  32 0
 6-311+G(2d,p)
 ****
 33  34 0
 6-311+G(2d,p)
 ****
 1  2  14  15  16  17  18  19  20  21  22  23  25  26  27 0
 3-21G
 ****
 35  36  37  38  39  40  41  42  43  44  45 0
 3-21G
 ****


