%nproc=1
%NoSave
%Mem=1900MB
#P OB98/GEN NMR

erre ene a

0 1
  C     -428.162     504.575    -317.650
  O     -426.774     504.290    -317.692
  P     -425.716     505.466    -317.944
  C     -426.258     506.301    -315.562
  O     -426.135     506.643    -316.940
  C     -425.505     507.291    -314.677
  O     -424.082     507.055    -314.743
  C     -425.695     508.746    -315.080
  O     -426.961     509.216    -314.634
  C     -424.507     509.398    -314.390
  O     -424.778     509.666    -313.009
  C     -423.415     508.315    -314.545
  N     -422.473     508.611    -315.615
  C     -421.292     509.252    -315.219
  O     -421.111     509.556    -314.046
  N     -420.357     509.565    -316.181
  C     -420.612     509.291    -317.436
  N     -419.648     509.636    -318.341
  C     -421.854     508.652    -317.882
  C     -422.738     508.342    -316.931
  O     -425.532     505.869    -319.371
  O     -424.374     504.891    -317.269
  H     -424.710     508.807    -312.551
  H     -423.965     504.189    -317.836
  H     -422.023     508.455    -318.935
  H     -423.685     507.877    -317.180
  H     -422.841     508.218    -313.598
  H     -424.234     510.359    -314.858
  H     -425.606     508.850    -316.161
  H     -425.828     507.134    -313.642
  H     -418.819     510.102    -317.997
  H     -425.833     505.292    -315.426
  H     -419.760     509.500    -319.334
  H     -427.319     506.264    -315.287
  P     -427.720     510.368    -315.462
  C     -429.046     508.835    -317.038
  O     -428.023     509.799    -316.930
  O     -427.070     511.714    -315.416
  O     -429.168     510.417    -314.787
  H     -429.415     511.351    -314.652
  H     -429.380     508.781    -318.070
  H     -429.901     509.106    -316.397
  H     -428.667     507.852    -316.730
  H     -428.707     503.671    -317.473
  H     -428.468     504.999    -318.584
  H     -428.360     505.271    -316.861

 3  4  5  6  7  8  9  10  11  12  13  23  27  28  29  30  32 0
 6-311+G(2d,p)
 ****
 34  35 0
 6-311+G(2d,p)
 ****
 1  2  14  15  16  17  18  19  20  21  22  24  25  26 0
 3-21G
 ****
 31  33  36  37  38  39  40  41  42  43  44  45  46 0
 3-21G
 ****


