%nproc=1
%NoSave
%Mem=1900MB
#P OB98/GEN NMR

erre ene a

0 1
  C     -238.277     784.803    -104.678
  O     -239.123     785.288    -105.704
  P     -238.712     786.588    -106.558
  C     -240.330     788.618    -106.119
  O     -239.180     787.886    -105.748
  C     -241.578     787.823    -105.703
  O     -241.483     787.426    -104.324
  C     -242.851     788.661    -105.856
  O     -243.462     788.410    -107.122
  C     -243.691     788.212    -104.681
  O     -244.370     786.966    -104.989
  C     -242.606     787.979    -103.595
  N     -242.134     789.154    -102.833
  C     -243.045     790.052    -102.311
  O     -244.276     789.924    -102.429
  N     -242.513     791.135    -101.664
  C     -241.189     791.376    -101.462
  O     -240.718     792.445    -101.104
  C     -240.294     790.257    -101.788
  C     -240.780     789.219    -102.473
  O     -239.739     786.538    -107.790
  O     -237.292     786.646    -107.018
  H     -243.684     786.284    -105.047
  H     -239.310     786.157    -108.581
  H     -243.176     791.884    -101.413
  H     -239.251     790.350    -101.523
  H     -240.139     788.401    -102.749
  H     -242.943     787.226    -102.863
  H     -244.475     788.940    -104.452
  H     -242.621     789.727    -105.744
  H     -241.647     786.920    -106.332
  H     -240.330     788.798    -107.195
  H     -240.324     789.601    -105.636
  P     -244.502     789.481    -107.726
  C     -246.905     788.589    -107.569
  O     -245.858     789.263    -106.887
  O     -244.657     789.466    -109.214
  O     -243.936     790.885    -107.186
  H     -243.403     791.314    -107.883
  H     -247.688     788.344    -106.854
  H     -246.548     787.673    -108.036
  H     -247.317     789.257    -108.345
  H     -238.720     783.938    -104.230
  H     -238.146     785.562    -103.935
  H     -237.326     784.542    -105.093

 3  4  5  6  7  8  9  10  11  12  13  23  28  29  30  31  32 0
 6-311+G(2d,p)
 ****
 33  34 0
 6-311+G(2d,p)
 ****
 1  2  14  15  16  17  18  19  20  21  22  24  25  26  27 0
 3-21G
 ****
 35  36  37  38  39  40  41  42  43  44  45 0
 3-21G
 ****


