%nproc=1
%NoSave
%Mem=1900MB
#P OB98/GEN NMR

erre ene a

0 1
  C      -51.609    -142.848     -87.380
  O      -52.754    -143.678     -87.392
  P      -54.032    -143.262     -88.259
  C      -55.697    -143.542     -86.322
  O      -55.120    -142.639     -87.260
  C      -56.767    -142.833     -85.494
  O      -56.188    -141.735     -84.759
  C      -57.891    -142.225     -86.323
  O      -58.790    -143.223     -86.764
  C      -58.479    -141.227     -85.333
  O      -59.377    -141.884     -84.425
  C      -57.225    -140.741     -84.591
  N      -58.250    -135.749     -84.751
  C      -58.984    -136.805     -84.345
  N      -58.654    -138.115     -84.370
  C      -57.433    -138.281     -84.903
  C      -56.582    -137.304     -85.393
  C      -57.024    -135.975     -85.281
  N      -56.260    -134.885     -85.634
  N      -55.427    -137.876     -85.891
  C      -55.584    -139.171     -85.712
  N      -56.751    -139.457     -85.061
  O      -54.550    -144.316     -89.181
  O      -53.531    -141.985     -89.085
  H      -60.233    -141.982     -84.883
  H      -53.590    -142.175     -90.041
  H      -59.963    -136.569     -83.937
  H      -54.881    -139.934     -86.019
  H      -57.401    -140.649     -83.513
  H      -59.042    -140.428     -85.825
  H      -57.471    -141.679     -87.176
  H      -57.168    -143.552     -84.768
  H      -54.903    -143.910     -85.666
  H      -56.614    -133.976     -85.378
  H      -55.256    -135.014     -85.738
  H      -56.134    -144.391     -86.858
  P      -59.745    -142.938     -88.017
  C      -61.922    -143.632     -86.855
  O      -61.189    -142.568     -87.429
  O      -59.738    -143.981     -89.085
  O      -59.220    -141.532     -88.576
  H      -59.343    -141.501     -89.543
  H      -62.366    -144.241     -87.647
  H      -62.721    -143.214     -86.237
  H      -61.279    -144.257     -86.229
  H      -50.860    -143.282     -86.751
  H      -51.873    -141.881     -87.005
  H      -51.227    -142.752     -88.375

 3  4  5  6  7  8  9  10  11  12  22  25  29  30  31  32 0
 6-311+G(2d,p)
 ****
 33  36  37 0
 6-311+G(2d,p)
 ****
 1  2  13  14  15  16  17  18  19  20  21  23  24  26 0
 3-21G
 ****
 27  28  34  35  38  39  40  41  42  43  44  45  46  47  48 0
 3-21G
 ****


