%nproc=1
%NoSave
%Mem=1900MB
#P OB98/GEN NMR

erre ene a

0 1
  C      137.685      35.026      21.086
  O      136.523      35.111      20.284
  P      135.779      36.516      20.104
  C      133.454      36.944      21.112
  O      134.836      36.737      21.382
  C      132.720      35.606      21.050
  O      133.171      34.735      22.108
  C      131.211      35.717      21.226
  O      130.598      36.189      20.043
  C      130.852      34.284      21.603
  O      130.750      33.463      20.428
  C      132.066      33.866      22.446
  N      130.032      31.383      26.410
  C      129.999      31.140      25.082
  N      130.534      31.873      24.082
  C      131.135      32.969      24.573
  C      131.219      33.368      25.898
  C      130.652      32.504      26.849
  N      130.733      32.709      28.209
  N      131.888      34.574      25.996
  C      132.191      34.897      24.757
  N      131.814      33.928      23.871
  O      135.113      36.724      18.785
  O      136.943      37.593      20.327
  H      129.945      33.738      19.951
  H      137.044      38.131      19.518
  H      129.482      30.232      24.783
  H      132.695      35.806      24.454
  H      132.388      32.843      22.216
  H      129.898      34.214      22.132
  H      130.982      36.378      22.071
  H      132.964      35.127      20.092
  H      133.364      37.460      20.152
  H      130.421      31.956      28.803
  H      131.436      33.356      28.558
  H      133.022      37.576      21.895
  P      129.325      37.155      20.136
  C      127.275      36.067      19.045
  O      128.031      36.214      20.232
  O      129.255      38.234      19.108
  O      129.426      37.767      21.613
  H      129.061      38.672      21.615
  H      126.656      36.955      18.892
  H      126.626      35.194      19.149
  H      127.929      35.922      18.180
  H      138.043      34.017      21.090
  H      137.451      35.326      22.086
  H      138.441      35.671      20.688

 3  4  5  6  7  8  9  10  11  12  22  25  29  30  31  32 0
 6-311+G(2d,p)
 ****
 33  36  37 0
 6-311+G(2d,p)
 ****
 1  2  13  14  15  16  17  18  19  20  21  23  24  26 0
 3-21G
 ****
 27  28  34  35  38  39  40  41  42  43  44  45  46  47  48 0
 3-21G
 ****


