%nproc=1
%NoSave
%Mem=1900MB
#P OB98/GEN NMR

erre ene a

0 1
  C     1159.294    -258.582    -891.380
  O     1158.781    -259.917    -891.440
  P     1159.339    -261.021    -892.450
  C     1158.422    -259.819    -894.540
  O     1159.576    -260.344    -893.900
  C     1158.726    -259.501    -896.020
  O     1159.473    -260.554    -896.650
  C     1157.454    -259.328    -896.900
  O     1156.856    -258.077    -896.670
  C     1158.081    -259.501    -898.270
  O     1158.662    -258.278    -898.760
  C     1159.156    -260.574    -898.030
  N     1158.728    -261.889    -898.460
  C     1159.711    -262.753    -899.020
  O     1160.858    -262.307    -899.200
  N     1159.386    -264.030    -899.390
  C     1158.130    -264.404    -899.270
  N     1157.858    -265.683    -899.650
  C     1157.049    -263.531    -898.750
  C     1157.415    -262.302    -898.390
  O     1158.536    -262.284    -892.490
  O     1160.837    -261.344    -891.940
  H     1158.866    -258.438    -899.710
  H     1161.058    -262.268    -892.150
  H     1156.022    -263.897    -898.720
  H     1156.683    -261.593    -897.980
  H     1160.074    -260.308    -898.550
  H     1157.329    -259.800    -899.030
  H     1156.780    -260.163    -896.660
  H     1159.339    -258.580    -896.070
  H     1158.620    -266.247    -900.000
  H     1158.141    -258.889    -894.040
  H     1156.932    -266.073    -899.610
  H     1157.623    -260.521    -894.470
  P     1155.409    -258.024    -895.940
  C     1154.272    -258.161    -898.240
  O     1154.377    -258.709    -896.920
  O     1155.008    -256.671    -895.410
  O     1155.542    -259.077    -894.730
  H     1155.008    -258.781    -894.010
  H     1153.856    -258.945    -898.900
  H     1155.266    -257.889    -898.600
  H     1153.588    -257.318    -898.240
  H     1158.765    -258.030    -890.631
  H     1159.165    -258.107    -892.330
  H     1160.335    -258.611    -891.134

 3  4  5  6  7  8  9  10  11  12  13  23  27  28  29  30  32 0
 6-311+G(2d,p)
 ****
 34  35 0
 6-311+G(2d,p)
 ****
 1  2  14  15  16  17  18  19  20  21  22  24  25  26 0
 3-21G
 ****
 31  33  36  37  38  39  40  41  42  43  44  45  46 0
 3-21G
 ****


