%nproc=1
%NoSave
%Mem=1900MB
#P OB98/GEN NMR

erre ene a

0 1
  C       35.470     304.878     162.856
  O       34.880     304.449     164.066
  H       36.208     305.652     163.082
  H       34.709     305.305     162.198
  H       35.976     304.050     162.353
  P       33.892     303.189     164.039
  C       35.252     301.872     165.795
  O       34.010     302.479     165.470
  C       35.663     302.209     167.232
  O       36.046     303.618     167.287
  C       34.545     302.005     168.274
  O       35.183     301.662     169.512
  C       33.945     303.398     168.328
  O       33.063     303.567     169.409
  C       35.235     304.227     168.316
  N       35.062     305.651     168.061
  C       34.635     306.451     169.116
  O       34.398     306.043     170.252
  N       34.478     307.782     168.827
  C       34.714     308.376     167.622
  O       34.586     309.579     167.432
  C       35.156     307.478     166.544
  C       35.314     306.180     166.810
  O       34.035     302.278     162.867
  O       32.434     303.852     164.093
  H       32.039     303.849     163.201
  H       32.860     304.522     169.509
  H       34.172     308.377     169.580
  H       35.341     307.915     165.573
  H       35.648     305.494     166.037
  H       35.770     304.096     169.263
  H       33.353     303.584     167.427
  H       33.839     301.217     167.998
  H       36.556     301.628     167.491
  H       36.007     302.247     165.097
  H       35.164     300.788     165.673
  P       35.135     300.191     170.155
  C       37.527     299.998     171.127
  O       36.142     300.162     171.406
  O       35.369     299.094     169.170
  O       33.686     300.070     170.823
  H       33.421     299.131     170.858
  H       38.078     299.997     172.044
  H       37.864     300.804     170.510
  H       37.681     299.070     170.617

 6  7  8  9  10  11  12  13  14  15  16  27  31  32  33  34  35 0
 6-311+G(2d,p)
 ****
 36  37 0
 6-311+G(2d,p)
 ****
 1  2  3  4  5  17  18  19  20  21  22  23  24  25 0
 3-21G
 ****
 26  28  29  30  38  39  40  41  42  43  44  45 0
 3-21G
 ****


