%nproc=1
%NoSave
%Mem=1900MB
#P OB98/GEN NMR

erre ene a

0 1
  C      417.497     202.866     263.300
  O      416.998     203.120     261.998
  H      417.448     203.791     263.881
  H      418.537     202.534     263.247
  H      416.887     202.104     263.792
  P      417.090     201.909     260.948
  C      419.340     202.906     260.078
  O      418.666     201.793     260.646
  C      420.838     202.633     260.017
  O      421.358     202.310     261.323
  C      421.230     201.456     259.127
  O      421.205     201.766     257.739
  C      422.643     201.209     259.621
  O      423.523     202.228     259.108
  C      422.444     201.355     261.149
  N      422.131     200.088     261.813
  C      423.215     199.379     262.355
  O      424.357     199.818     262.265
  N      422.970     198.170     262.957
  C      421.758     197.717     263.036
  N      421.583     196.509     263.647
  C      420.589     198.429     262.493
  C      420.845     199.596     261.901
  O      416.518     202.549     259.598
  O      416.432     200.634     261.359
  H      423.462     202.185     258.138
  H      416.667     201.926     258.841
  H      419.599     198.005     262.568
  H      420.036     200.179     261.472
  H      423.338     201.789     261.617
  H      423.051     200.248     259.308
  H      420.617     200.572     259.338
  H      421.335     203.557     259.688
  H      422.407     196.016     263.955
  H      419.147     203.785     260.714
  H      420.709     196.006     263.623
  H      418.961     203.107     259.077
  P      420.380     200.773     256.780
  C      422.568     199.410     256.399
  O      421.187     199.392     256.743
  O      420.629     201.387     255.324
  O      418.923     200.657     257.100
  H      419.845     201.267     254.755
  H      422.954     198.412     256.421
  H      423.103     200.015     257.101
  H      422.685     199.816     255.416

 6  7  8  9  10  11  12  13  14  15  16  26  30  31  32  33  35 0
 6-311+G(2d,p)
 ****
 37  38 0
 6-311+G(2d,p)
 ****
 1  2  3  4  5  17  18  19  20  21  22  23  24  25 0
 3-21G
 ****
 27  28  29  34  36  39  40  41  42  43  44  45  46 0
 3-21G
 ****


