%nproc=1
%NoSave
%Mem=1900MB
#P OB98/GEN NMR

erre ene a

0 1
  C      235.601     -47.875     -20.065
  O      234.679     -48.601     -20.884
  P      233.543     -49.452     -20.138
  C      231.545     -48.981     -18.536
  O      232.621     -48.446     -19.300
  C      230.784     -47.853     -17.836
  O      231.664     -47.055     -17.025
  C      230.140     -46.877     -18.805
  O      228.951     -47.420     -19.345
  C      229.913     -45.656     -17.921
  O      228.628     -45.698     -17.278
  C      231.051     -45.762     -16.882
  N      232.030     -44.695     -17.011
  C      232.391     -44.048     -15.824
  O      231.869     -44.375     -14.756
  N      233.310     -43.031     -15.884
  C      233.805     -42.677     -17.030
  N      234.707     -41.660     -17.026
  C      233.429     -43.316     -18.307
  C      232.544     -44.308     -18.227
  O      234.356     -50.239     -19.006
  O      232.803     -50.389     -21.037
  H      228.629     -46.516     -16.741
  H      233.951     -51.108     -18.841
  H      233.863     -42.981     -19.238
  H      232.211     -44.833     -19.115
  H      230.642     -45.721     -15.864
  H      229.943     -44.730     -18.503
  H      230.845     -46.625     -19.608
  H      230.016     -48.301     -17.190
  H      234.938     -41.244     -16.132
  H      231.924     -49.689     -17.797
  H      235.149     -41.299     -17.860
  H      230.887     -49.546     -19.203
  P      228.953     -47.830     -20.893
  C      228.221     -50.078     -21.892
  O      228.996     -49.433     -20.899
  O      230.449     -47.460     -21.335
  O      227.935     -47.187     -21.773
  H      230.552     -47.576     -22.296
  H      228.499     -51.136     -21.920
  H      228.410     -49.640     -22.874
  H      227.159     -49.999     -21.644
  H      236.299     -47.356     -20.688
  H      236.127     -48.557     -19.430
  H      235.066     -47.169     -19.465

 3  4  5  6  7  8  9  10  11  12  13  21  23  27  28  29  30  32 0
 6-311+G(2d,p)
 ****
 34  35 0
 6-311+G(2d,p)
 ****
 1  2  14  15  16  17  18  19  20  22  24  25  26 0
 3-21G
 ****
 31  33  36  37  38  39  40  41  42  43  44  45  46 0
 3-21G
 ****


