%nproc=1
%NoSave
%Mem=1900MB
#P OB98/GEN NMR

erre ene a

0 1
  C      126.971     425.599     -90.089
  O      127.728     424.977     -89.070
  H      125.972     425.844     -89.722
  H      127.473     426.525     -90.386
  H      126.899     424.941     -90.961
  P      127.142     423.611     -88.467
  C      126.953     424.490     -86.024
  O      127.598     423.602     -86.926
  C      127.854     424.727     -84.816
  O      127.929     423.527     -84.011
  C      129.295     425.068     -85.183
  O      129.464     426.437     -85.509
  C      130.010     424.716     -83.890
  O      129.790     425.752     -82.917
  C      129.280     423.427     -83.476
  N      130.923     418.734     -82.254
  C      130.288     419.685     -81.534
  N      129.866     420.900     -81.938
  C      130.147     421.095     -83.236
  C      130.780     420.216     -84.100
  C      131.186     418.983     -83.560
  N      131.863     418.024     -84.286
  N      130.912     420.779     -85.355
  C      130.350     421.966     -85.249
  N      129.900     422.216     -83.982
  O      128.062     422.478     -89.122
  O      125.683     423.376     -88.681
  H      129.938     426.604     -83.373
  H      127.658     421.598     -89.001
  H      130.099     419.435     -80.494
  H      130.251     422.684     -86.057
  H      129.198     423.322     -82.386
  H      131.091     424.617     -84.017
  H      129.670     424.420     -85.987
  H      127.410     425.514     -84.200
  H      126.009     424.044     -85.694
  H      132.237     417.242     -83.772
  H      132.190     418.258     -85.209
  H      126.746     425.439     -86.530
  P      130.392     426.791     -86.775
  C      132.411     427.825     -85.512
  O      131.282     428.055     -86.346
  O      129.346     427.411     -87.816
  O      131.138     425.630     -87.342
  H      129.613     427.212     -88.733
  H      132.902     428.754     -85.312
  H      133.090     427.162     -86.006
  H      132.090     427.386     -84.591

 6  7  8  9  10  11  12  13  14  15  25  28  32  33  34  35 0
 6-311+G(2d,p)
 ****
 36  39  40 0
 6-311+G(2d,p)
 ****
 1  2  3  4  5  16  17  18  19  20  21  22  23  24 0
 3-21G
 ****
 26  27  29  30  31  37  38  41  42  43  44  45  46  47 0
 3-21G
 ****
 48 0
 3-21G
 ****


