%nproc=1
%NoSave
%Mem=1900MB
#P OB98/GEN NMR

erre ene a

0 1
  C       87.218     -14.557      26.152
  O       86.533     -13.510      26.807
  H       87.811     -14.132      25.338
  H       86.503     -15.266      25.728
  H       87.892     -15.074      26.841
  P       85.732     -13.836      28.155
  C       83.993     -12.035      27.524
  O       84.881     -12.528      28.516
  C       83.881     -10.508      27.604
  O       84.821      -9.923      26.652
  C       82.483      -9.958      27.255
  O       82.310      -8.748      28.005
  C       82.651      -9.672      25.773
  O       81.599      -8.904      25.248
  C       84.053      -9.049      25.796
  N       84.696      -8.906      24.496
  C       84.594      -7.676      23.855
  O       84.003      -6.698      24.310
  N       85.206      -7.590      22.631
  C       85.903      -8.585      22.010
  O       86.457      -8.440      20.928
  C       85.970      -9.863      22.734
  C       85.379      -9.963      23.926
  O       86.547     -14.390      29.276
  O       84.604     -14.871      27.682
  H       84.868     -15.778      27.928
  H       81.800      -8.685      24.312
  H       85.146      -6.706      22.155
  H       86.506     -10.677      22.264
  H       85.419     -10.891      24.487
  H       84.018      -8.071      26.287
  H       82.649     -10.608      25.210
  H       81.676     -10.655      27.494
  H       84.195     -10.182      28.603
  H       83.009     -12.486      27.692
  H       84.358     -12.334      26.536
  P       81.362      -8.637      29.296
  C       79.645      -6.808      28.657
  O       80.822      -7.127      29.390
  O       81.997      -9.127      30.557
  O       80.057      -9.491      28.938
  H       79.645      -9.817      29.759
  H       79.399      -5.778      28.808
  H       78.836      -7.421      28.996
  H       79.814      -6.985      27.615

 6  7  8  9  10  11  12  13  14  15  16  27  31  32  33  34  35 0
 6-311+G(2d,p)
 ****
 36  37 0
 6-311+G(2d,p)
 ****
 1  2  3  4  5  17  18  19  20  21  22  23  24  25 0
 3-21G
 ****
 26  28  29  30  38  39  40  41  42  43  44  45 0
 3-21G
 ****


