%nproc=1
%NoSave
%Mem=1900MB
#P OB98/GEN NMR

erre ene a

0 1
  C       59.056    -144.427     -71.833
  O       58.846    -144.938     -70.533
  H       58.707    -143.392     -71.863
  H       58.486    -145.008     -72.562
  H       60.118    -144.445     -72.093
  P       59.455    -146.373     -70.159
  C       57.137    -147.450     -70.500
  O       58.237    -147.266     -69.619
  C       56.065    -148.298     -69.821
  O       54.938    -148.477     -70.706
  C       56.526    -149.702     -69.449
  O       57.349    -149.675     -68.299
  C       55.186    -150.400     -69.263
  O       54.627    -150.099     -67.976
  C       54.347    -149.759     -70.394
  N       54.255    -150.597     -71.589
  C       53.256    -151.565     -71.590
  O       52.504    -151.755     -70.637
  N       53.163    -152.326     -72.726
  C       54.006    -152.269     -73.798
  O       53.912    -153.012     -74.770
  C       55.064    -151.251     -73.726
  C       55.138    -150.475     -72.644
  O       60.660    -146.359     -69.279
  O       59.775    -147.028     -71.585
  H       55.125    -150.632     -67.325
  H       60.726    -146.944     -71.780
  H       52.454    -153.041     -72.740
  H       55.755    -151.181     -74.556
  H       55.915    -149.721     -72.570
  H       53.328    -149.556     -70.041
  H       55.266    -151.485     -69.326
  H       57.049    -150.166     -70.293
  H       55.712    -147.756     -68.933
  H       57.490    -147.961     -71.403
  H       56.738    -146.470     -70.779
  P       58.842    -150.250     -68.346
  C       58.023    -152.330     -67.097
  O       58.997    -151.295     -67.136
  O       59.919    -149.220     -68.421
  O       58.852    -151.191     -69.641
  H       59.347    -150.755     -70.362
  H       58.214    -152.968     -66.259
  H       58.074    -152.902     -68.000
  H       57.048    -151.899     -67.002

 6  7  8  9  10  11  12  13  14  15  16  26  31  32  33  34  35 0
 6-311+G(2d,p)
 ****
 36  37 0
 6-311+G(2d,p)
 ****
 1  2  3  4  5  17  18  19  20  21  22  23  24  25 0
 3-21G
 ****
 27  28  29  30  38  39  40  41  42  43  44  45 0
 3-21G
 ****


