%nproc=1
%NoSave
%Mem=1900MB
#P OB98/GEN NMR

erre ene a

0 1
  C       -6.037       6.696      13.084
  O       -5.025       7.482      13.673
  H       -6.984       7.236      13.156
  H       -6.128       5.750      13.625
  H       -5.826       6.497      12.030
  P       -3.498       7.157      13.326
  C       -2.081       7.067      11.172
  O       -3.384       6.982      11.734
  C       -1.985       6.325       9.839
  O       -2.292       4.926      10.023
  C       -2.989       6.846       8.811
  O       -2.574       7.987       8.083
  C       -3.148       5.639       7.891
  O       -2.121       5.621       6.886
  C       -2.981       4.459       8.850
  N       -5.936       0.292       8.825
  C       -4.699       0.484       8.242
  N       -4.218      -0.545       7.511
  N       -4.015       1.591       8.353
  C       -4.664       2.566       9.031
  C       -5.896       2.498       9.642
  C       -6.623       1.248       9.559
  O       -7.725       1.028      10.052
  N       -6.227       3.689      10.242
  C       -5.233       4.495       9.930
  N       -4.247       3.852       9.219
  O       -3.303       5.655      13.853
  O       -2.490       8.079      13.943
  H       -2.342       4.932       6.234
  H       -2.368       5.500      14.076
  H       -6.406      -0.591       8.730
  H       -5.164       5.539      10.214
  H       -2.362       3.668       8.409
  H       -4.106       5.657       7.363
  H       -4.759      -1.370       7.301
  H       -3.954       7.045       9.287
  H       -3.456      -0.352       6.859
  H       -0.956       6.385       9.466
  H       -1.396       6.622      11.897
  H       -1.788       8.113      11.050
  P       -3.662       8.937       7.393
  C       -5.465      10.533       8.381
  O       -4.711       9.350       8.532
  O       -4.482       7.923       6.467
  O       -3.099      10.073       6.610
  H       -4.142       7.951       5.553
  H       -6.110      10.655       9.226
  H       -6.053      10.470       7.489
  H       -4.804      11.371       8.313

 6  7  8  9  10  11  12  13  14  15  26  29  33  34 0
 6-311+G(2d,p)
 ****
 36  38  39  40  41 0
 6-311+G(2d,p)
 ****
 1  2  3  4  5  16  17  18  19  20  21  22  23  24  25 0
 3-21G
 ****
 27  28  30  31  32  35  37  42  43  44  45  46  47 0
 3-21G
 ****
 48  49 0
 3-21G
 ****


