%nproc=1
%NoSave
%Mem=1900MB
#P OB98/GEN NMR

erre ene a

0 1
  C      472.280    1014.421     439.021
  O      471.313    1014.096     440.009
  P      470.258    1015.185     440.521
  C      470.472    1014.505     443.053
  O      469.660    1014.689     441.908
  C      469.762    1013.543     444.017
  O      468.472    1014.066     444.389
  C      469.561    1012.173     443.378
  O      470.632    1011.291     443.733
  C      468.220    1011.750     443.943
  O      468.371    1011.212     445.274
  C      467.460    1013.098     443.998
  N      466.817    1013.584     442.757
  C      465.873    1012.789     442.124
  O      465.497    1011.694     442.544
  N      465.363    1013.290     440.942
  C      465.686    1014.500     440.395
  O      465.425    1014.825     439.247
  C      466.471    1015.395     441.248
  C      467.010    1014.898     442.357
  O      469.042    1015.020     439.502
  O      470.766    1016.592     440.560
  H      468.715    1011.916     445.839
  H      469.071    1015.693     438.809
  H      464.781    1012.656     440.410
  H      466.628    1016.412     440.915
  H      467.625    1015.534     442.987
  H      466.693    1013.086     444.780
  H      467.777    1010.956     443.343
  H      469.468    1012.274     442.295
  H      470.374    1013.454     444.929
  H      470.644    1015.485     443.539
  H      471.447    1014.120     442.769
  P      471.507    1010.636     442.574
  C      470.949    1008.198     443.170
  O      471.953    1009.202     443.144
  O      472.622    1011.490     442.046
  O      470.434    1010.296     441.438
  H      470.443    1010.994     440.759
  H      471.413    1007.237     443.417
  H      470.452    1008.132     442.196
  H      470.206    1008.434     443.947
  H      472.886    1013.562     438.819
  H      472.899    1015.218     439.376
  H      471.784    1014.727     438.124

 3  4  5  6  7  8  9  10  11  12  13  23  28  29  30  31  32 0
 6-311+G(2d,p)
 ****
 33  34 0
 6-311+G(2d,p)
 ****
 1  2  14  15  16  17  18  19  20  21  22  24  25  26  27 0
 3-21G
 ****
 35  36  37  38  39  40  41  42  43  44  45 0
 3-21G
 ****


