%nproc=1
%NoSave
%Mem=1900MB
#P OB98/GEN NMR

erre ene a

0 1
  C      235.936    -457.510    -321.941
  O      236.214    -458.313    -320.813
  H      236.722    -457.666    -322.684
  H      235.920    -456.453    -321.664
  H      234.975    -457.795    -322.377
  P      235.234    -458.158    -319.552
  C      236.920    -456.984    -317.959
  O      236.156    -458.152    -318.241
  C      237.564    -457.118    -316.582
  O      236.550    -457.014    -315.555
  C      238.247    -458.458    -316.342
  O      239.526    -458.537    -316.949
  C      238.324    -458.476    -314.825
  O      239.477    -457.768    -314.344
  C      237.021    -457.764    -314.417
  N      236.019    -458.713    -313.930
  C      236.132    -459.073    -312.589
  O      237.006    -458.634    -311.839
  N      235.221    -459.989    -312.138
  C      234.269    -460.605    -312.894
  O      233.521    -461.461    -312.438
  C      234.209    -460.201    -314.307
  C      235.075    -459.287    -314.757
  O      234.491    -459.574    -319.490
  O      234.269    -457.024    -319.644
  H      233.572    -459.480    -319.803
  H      239.523    -456.943    -314.864
  H      235.286    -460.261    -311.169
  H      233.464    -460.671    -314.938
  H      235.058    -458.979    -315.799
  H      237.217    -457.037    -313.618
  H      238.392    -459.494    -314.450
  H      237.602    -459.280    -316.677
  H      238.274    -456.293    -316.448
  H      236.268    -456.105    -317.961
  H      237.680    -456.858    -318.738
  P      239.944    -459.928    -317.632
  C      242.394    -459.938    -316.670
  O      241.540    -459.871    -317.800
  O      239.371    -459.712    -319.110
  O      239.411    -461.120    -316.916
  H      239.333    -458.767    -319.350
  H      243.414    -459.885    -316.990
  H      242.230    -460.861    -316.153
  H      242.183    -459.119    -316.014

 6  7  8  9  10  11  12  13  14  15  16  27  31  32  33  34  35 0
 6-311+G(2d,p)
 ****
 36  37 0
 6-311+G(2d,p)
 ****
 1  2  3  4  5  17  18  19  20  21  22  23  24  25 0
 3-21G
 ****
 26  28  29  30  38  39  40  41  42  43  44  45 0
 3-21G
 ****


