%nproc=1
%NoSave
%Mem=1900MB
#P OB98/GEN NMR

erre ene a

0 1
  C       25.178     -52.388    -550.716
  O       24.876     -51.139    -550.130
  H       24.379     -52.649    -551.416
  H       25.233     -53.164    -549.944
  H       26.120     -52.346    -551.268
  P       25.983     -50.427    -549.216
  C       26.604     -50.464    -546.714
  O       25.894     -51.101    -547.764
  C       26.900     -51.463    -545.595
  O       25.685     -51.783    -544.873
  C       27.448     -52.801    -546.088
  O       28.810     -52.684    -546.456
  C       27.180     -53.680    -544.876
  O       28.193     -53.484    -543.873
  C       25.818     -53.137    -544.394
  N       24.679     -53.961    -544.838
  C       24.095     -54.770    -543.867
  O       24.500     -54.838    -542.713
  N       23.011     -55.506    -544.288
  C       22.536     -55.577    -545.567
  O       21.599     -56.292    -545.902
  C       23.229     -54.728    -546.547
  C       24.246     -53.971    -546.152
  O       25.962     -48.930    -549.216
  O       27.368     -50.987    -549.789
  H       28.112     -54.230    -543.243
  H       27.777     -50.329    -550.383
  H       22.578     -56.107    -543.605
  H       22.878     -54.764    -547.579
  H       24.768     -53.343    -546.863
  H       25.787     -53.087    -543.304
  H       27.181     -54.749    -545.118
  H       26.850     -53.171    -546.930
  H       27.599     -50.995    -544.896
  H       25.989     -49.650    -546.310
  H       27.534     -50.041    -547.111
  P       29.551     -53.866    -547.248
  C       30.332     -56.234    -546.711
  O       29.447     -55.192    -546.354
  O       30.931     -53.537    -547.724
  O       28.574     -54.172    -548.484
  H       28.955     -53.820    -549.312
  H       30.183     -57.068    -546.057
  H       31.341     -55.890    -546.626
  H       30.142     -56.534    -547.720

 6  7  8  9  10  11  12  13  14  15  16  26  31  32  33  34  35 0
 6-311+G(2d,p)
 ****
 36  37 0
 6-311+G(2d,p)
 ****
 1  2  3  4  5  17  18  19  20  21  22  23  24  25 0
 3-21G
 ****
 27  28  29  30  38  39  40  41  42  43  44  45 0
 3-21G
 ****


