%nproc=1
%NoSave
%Mem=1900MB
#P OB98/GEN NMR

erre ene a

0 1
  C      416.969      53.580    -172.518
  O      417.115      54.866    -173.086
  H      416.860      52.852    -173.327
  H      416.077      53.537    -171.890
  H      417.852      53.316    -171.928
  P      417.289      56.113    -172.097
  C      419.760      55.604    -171.532
  O      418.848      56.503    -172.149
  C      421.064      56.319    -171.216
  O      421.726      56.723    -172.428
  C      420.889      57.586    -170.375
  O      420.746      57.257    -169.007
  C      422.192      58.306    -170.688
  O      423.268      57.709    -169.946
  C      422.354      58.014    -172.189
  N      422.474      62.820    -173.797
  C      423.229      62.188    -172.830
  N      424.119      62.965    -172.165
  N      423.113      60.924    -172.525
  C      422.138      60.296    -173.222
  C      421.313      60.813    -174.187
  C      421.492      62.205    -174.560
  O      420.853      62.798    -175.417
  N      420.402      59.888    -174.622
  C      420.703      58.797    -173.949
  N      421.740      58.998    -173.071
  O      416.757      55.940    -170.707
  O      416.582      57.323    -172.867
  H      423.027      57.765    -169.003
  H      415.646      57.408    -172.603
  H      422.596      63.805    -173.973
  H      420.198      57.842    -174.051
  H      423.407      57.928    -172.484
  H      422.168      59.364    -170.434
  H      424.047      63.975    -172.162
  H      420.056      58.202    -170.737
  H      424.651      62.531    -171.421
  H      421.728      55.606    -170.712
  H      419.933      54.775    -172.232
  H      419.329      55.198    -170.610
  P      419.779      58.109    -168.044
  C      417.944      56.294    -168.186
  O      418.832      57.026    -167.341
  O      419.056      59.228    -168.714
  O      420.720      58.580    -166.843
  H      421.182      59.436    -167.014
  H      417.373      55.609    -167.595
  H      418.510      55.751    -168.913
  H      417.283      56.973    -168.683

 6  7  8  9  10  11  12  13  14  15  26  29  33  34 0
 6-311+G(2d,p)
 ****
 36  38  39  40  41 0
 6-311+G(2d,p)
 ****
 1  2  3  4  5  16  17  18  19  20  21  22  23  24  25 0
 3-21G
 ****
 27  28  30  31  32  35  37  42  43  44  45  46  47 0
 3-21G
 ****
 48  49 0
 3-21G
 ****


