%nproc=1
%NoSave
%Mem=1900MB
#P OB98/GEN NMR

erre ene a

0 1
  C     -256.862       6.826    -175.327
  O     -257.478       8.063    -175.619
  H     -255.903       6.987    -174.826
  H     -257.517       6.255    -174.664
  H     -256.710       6.257    -176.249
  P     -256.621       9.095    -176.499
  C     -256.077      10.269    -174.253
  O     -255.581       9.794    -175.495
  C     -254.948      10.884    -173.435
  O     -253.858       9.949    -173.306
  C     -254.332      12.140    -174.042
  O     -255.134      13.291    -173.812
  C     -253.020      12.208    -173.274
  O     -253.247      12.790    -171.977
  C     -252.645      10.726    -173.126
  N     -248.248       8.152    -173.776
  C     -248.981       8.420    -172.671
  N     -250.130       9.118    -172.571
  C     -250.531       9.552    -173.778
  C     -249.890       9.357    -174.990
  C     -248.690       8.625    -174.963
  N     -247.943       8.372    -176.093
  N     -250.603       9.935    -176.018
  C     -251.658      10.473    -175.439
  N     -251.655      10.273    -174.085
  O     -257.665      10.268    -176.823
  O     -256.028       8.532    -177.748
  H     -253.696      12.110    -171.441
  H     -257.489      10.610    -177.719
  H     -248.592       8.016    -171.740
  H     -252.445      11.006    -175.959
  H     -252.271      10.504    -172.121
  H     -252.260      12.812    -173.775
  H     -254.122      12.003    -175.108
  H     -255.334      11.090    -172.428
  H     -256.513       9.435    -173.691
  H     -247.210       7.685    -176.043
  H     -248.288       8.725    -176.980
  H     -256.858      11.012    -174.445
  P     -255.231      14.373    -174.995
  C     -253.367      15.695    -173.766
  O     -253.820      15.137    -174.995
  O     -256.241      15.465    -174.405
  O     -255.694      13.838    -176.307
  H     -256.681      15.939    -175.137
  H     -252.420      16.169    -173.917
  H     -253.264      14.918    -173.038
  H     -254.076      16.417    -173.419

 6  7  8  9  10  11  12  13  14  15  25  28  32  33  34  35 0
 6-311+G(2d,p)
 ****
 36  39  40 0
 6-311+G(2d,p)
 ****
 1  2  3  4  5  16  17  18  19  20  21  22  23  24 0
 3-21G
 ****
 26  27  29  30  31  37  38  41  42  43  44  45  46  47  48 0
 3-21G
 ****


