%nproc=1
%NoSave
%Mem=1900MB
#P OB98/GEN NMR

erre ene a

0 1
  C     -158.717    -142.606    -249.571
  O     -158.724    -142.466    -248.147
  P     -158.408    -141.010    -247.548
  C     -160.701    -139.815    -247.977
  O     -159.820    -140.432    -247.052
  C     -161.739    -138.974    -247.231
  O     -162.489    -138.150    -248.156
  C     -162.779    -139.795    -246.481
  O     -162.238    -140.364    -245.301
  C     -163.860    -138.743    -246.253
  O     -163.521    -137.918    -245.129
  C     -163.786    -137.920    -247.555
  N     -164.867    -138.219    -248.484
  C     -165.682    -137.148    -248.834
  O     -165.530    -136.013    -248.384
  N     -166.692    -137.427    -249.714
  C     -166.981    -138.653    -250.239
  O     -167.896    -138.839    -251.031
  C     -166.119    -139.756    -249.794
  C     -165.114    -139.497    -248.950
  O     -158.091    -140.189    -248.884
  O     -157.316    -141.018    -246.536
  H     -158.632    -140.474    -249.643
  H     -163.833    -138.395    -244.333
  H     -167.286    -136.659    -249.993
  H     -166.334    -140.748    -250.172
  H     -164.470    -140.299    -248.609
  H     -163.825    -136.846    -247.326
  H     -164.838    -139.189    -246.051
  H     -163.166    -140.588    -247.135
  H     -161.204    -138.314    -246.537
  H     -161.217    -140.578    -248.570
  H     -160.117    -139.199    -248.666
  P     -162.227    -141.968    -245.213
  C     -159.960    -142.963    -246.054
  O     -160.697    -142.400    -244.994
  O     -162.529    -142.367    -246.733
  O     -163.199    -142.521    -244.222
  H     -162.020    -141.842    -247.370
  H     -158.892    -142.862    -245.833
  H     -160.171    -142.461    -247.002
  H     -160.200    -144.027    -246.141
  H     -158.941    -143.619    -249.831
  H     -157.751    -142.346    -249.950
  H     -159.454    -141.957    -249.997

 3  4  5  6  7  8  9  10  11  12  13  24  28  29  30  31  32 0
 6-311+G(2d,p)
 ****
 33  34 0
 6-311+G(2d,p)
 ****
 1  2  14  15  16  17  18  19  20  21  22  23  25  26  27 0
 3-21G
 ****
 35  36  37  38  39  40  41  42  43  44  45 0
 3-21G
 ****


