%nproc=1
%NoSave
%Mem=1900MB
#P OB98/GEN NMR

erre ene a

0 1
  C      337.646     330.067     -76.688
  O      337.397     328.934     -75.880
  H      336.881     330.114     -77.468
  H      338.630     329.988     -77.162
  H      337.595     330.978     -76.083
  P      338.482     328.618     -74.734
  C      336.860     327.166     -73.293
  O      338.000     327.202     -74.142
  C      336.203     325.791     -73.358
  O      335.392     325.673     -74.553
  C      337.185     324.625     -73.418
  O      337.756     324.306     -72.160
  C      336.252     323.524     -73.904
  O      335.401     323.098     -72.825
  C      335.447     324.280     -74.985
  N      336.046     324.178     -76.320
  C      335.748     323.024     -77.057
  O      335.023     322.151     -76.588
  N      336.317     322.870     -78.301
  C      337.091     323.794     -78.782
  N      337.624     323.580     -80.019
  C      337.419     325.029     -78.051
  C      336.869     325.158     -76.844
  O      338.092     329.639     -73.564
  O      339.912     328.670     -75.156
  H      335.987     322.740     -72.133
  H      338.609     329.426     -72.749
  H      338.080     325.770     -78.484
  H      337.064     326.043     -76.243
  H      334.414     323.912     -75.038
  H      336.777     322.640     -74.265
  H      337.962     324.785     -74.173
  H      335.526     325.699     -72.497
  H      337.425     322.696     -80.469
  H      336.153     327.941     -73.628
  H      338.350     324.169     -80.410
  H      337.154     327.378     -72.260
  P      339.346     324.065     -72.107
  C      339.427     325.447     -69.906
  O      339.800     324.251     -70.586
  O      339.933     325.361     -72.838
  O      339.805     322.799     -72.761
  H      340.744     325.141     -73.342
  H      339.803     325.420     -68.905
  H      338.360     325.527     -69.884
  H      339.838     326.292     -70.419

 6  7  8  9  10  11  12  13  14  15  16  26  30  31  32  33  35 0
 6-311+G(2d,p)
 ****
 37  38 0
 6-311+G(2d,p)
 ****
 1  2  3  4  5  17  18  19  20  21  22  23  24  25 0
 3-21G
 ****
 27  28  29  34  36  39  40  41  42  43  44  45  46 0
 3-21G
 ****


