%nproc=1
%NoSave
%Mem=1900MB
#P OB98/GEN NMR

erre ene a

0 1
  C      -21.424     409.904     652.430
  O      -20.601     410.793     651.659
  P      -19.454     411.686     652.330
  C      -17.435     413.107     651.552
  O      -18.663     412.479     651.177
  C      -16.322     412.832     650.539
  O      -16.059     411.413     650.428
  C      -16.629     413.312     649.117
  O      -16.424     414.712     649.010
  C      -15.661     412.457     648.302
  O      -14.344     413.029     648.322
  C      -15.687     411.126     649.071
  N      -16.095     406.349     647.260
  C      -15.052     407.033     647.812
  N      -15.020     408.295     648.267
  C      -16.232     408.876     648.119
  C      -17.389     408.317     647.591
  C      -17.288     406.994     647.132
  N      -18.341     406.309     646.568
  N      -18.426     409.235     647.598
  C      -17.912     410.316     648.155
  N      -16.592     410.150     648.490
  O      -18.554     410.940     653.271
  O      -20.233     412.852     653.106
  H      -14.380     413.876     647.838
  H      -19.702     413.163     653.869
  H      -14.127     406.463     647.897
  H      -18.458     411.236     648.325
  H      -14.690     410.675     649.107
  H      -15.963     412.371     647.249
  H      -17.658     413.047     648.848
  H      -15.404     413.306     650.907
  H      -17.135     412.709     652.541
  H      -18.184     405.373     646.238
  H      -19.220     406.791     646.424
  H      -17.603     414.185     651.645
  P      -17.687     415.709     649.035
  C      -17.952     418.245     649.324
  O      -17.111     417.194     648.874
  O      -18.640     415.511     650.164
  O      -18.403     415.446     647.616
  H      -19.360     415.615     647.712
  H      -18.720     418.446     648.558
  H      -17.355     419.145     649.471
  H      -18.445     417.981     650.266
  H      -22.119     409.410     651.783
  H      -21.959     410.464     653.168
  H      -20.807     409.175     652.913

 3  4  5  6  7  8  9  10  11  12  22  25  29  30  31  32 0
 6-311+G(2d,p)
 ****
 33  36  37 0
 6-311+G(2d,p)
 ****
 1  2  13  14  15  16  17  18  19  20  21  23  24  26 0
 3-21G
 ****
 27  28  34  35  38  39  40  41  42  43  44  45  46  47  48 0
 3-21G
 ****


