%nproc=1
%NoSave
%Mem=1900MB
#P OB98/GEN NMR

erre ene a

0 1
  C     -945.832    1089.883     120.229
  O     -946.299    1089.497     118.933
  P     -947.331    1088.253     118.811
  C     -949.347    1089.562     117.760
  O     -948.352    1088.544     117.619
  C     -949.984    1089.904     116.416
  O     -948.990    1090.246     115.439
  C     -950.757    1088.734     115.786
  O     -952.042    1088.558     116.428
  C     -950.876    1089.202     114.348
  O     -951.967    1090.106     114.158
  C     -949.517    1089.909     114.131
  N     -948.577    1089.083     113.357
  C     -948.320    1089.494     112.085
  O     -948.906    1090.430     111.525
  N     -947.401    1088.759     111.358
  C     -946.777    1087.601     111.830
  O     -945.980    1086.958     111.143
  C     -947.130    1087.186     113.194
  C     -948.020    1087.928     113.877
  O     -948.270    1088.471     120.089
  O     -946.718    1086.905     118.816
  H     -951.776    1090.917     114.642
  H     -948.608    1087.616     120.387
  H     -947.201    1089.034     110.428
  H     -946.685    1086.288     113.583
  H     -948.303    1087.653     114.903
  H     -949.664    1090.873     113.611
  H     -951.038    1088.337     113.642
  H     -950.177    1087.818     115.835
  H     -950.644    1090.778     116.553
  H     -948.883    1090.475     118.166
  H     -950.100    1089.204     118.487
  P     -952.548    1087.042     116.558
  C     -953.516    1086.997     119.003
  O     -953.769    1087.101     117.626
  O     -951.336    1086.376     117.397
  O     -952.828    1086.392     115.256
  H     -950.941    1087.015     117.985
  H     -952.555    1087.449     119.275
  H     -953.543    1085.952     119.292
  H     -954.309    1087.533     119.545
  H     -945.164    1090.713     120.135
  H     -945.318    1089.061     120.682
  H     -946.665    1090.163     120.839

 3  4  5  6  7  8  9  10  11  12  13  23  28  29  30  31  32 0
 6-311+G(2d,p)
 ****
 33  34 0
 6-311+G(2d,p)
 ****
 1  2  14  15  16  17  18  19  20  21  22  24  25  26 0
 3-21G
 ****
 27  35  36  37  38  39  40  41  42  43  44  45 0
 3-21G
 ****


