%nproc=1
%NoSave
%Mem=1900MB
#P OB98/GEN NMR

erre ene a

0 1
  C     -897.960    -480.830    -441.563
  O     -897.200    -479.620    -441.614
  H     -899.010    -480.579    -441.633
  H     -897.770    -481.341    -440.611
  H     -897.690    -481.475    -442.397
  P     -895.610    -479.764    -441.500
  C     -895.140    -477.462    -442.562
  O     -895.080    -478.247    -441.381
  C     -895.260    -475.974    -442.221
  O     -896.480    -475.753    -441.485
  C     -894.100    -475.467    -441.345
  O     -893.750    -474.138    -441.762
  C     -894.690    -475.432    -439.955
  O     -894.040    -474.483    -439.111
  C     -896.160    -475.103    -440.249
  N     -898.850    -473.626    -436.171
  C     -898.190    -472.922    -437.121
  N     -897.520    -473.400    -438.183
  C     -897.600    -474.735    -438.244
  C     -898.240    -475.587    -437.347
  C     -898.900    -474.970    -436.283
  N     -899.560    -475.658    -435.294
  N     -898.080    -476.898    -437.744
  C     -897.360    -476.852    -438.846
  N     -897.030    -475.567    -439.186
  O     -894.950    -480.590    -442.557
  O     -895.440    -480.305    -440.005
  H     -893.130    -474.811    -438.939
  H     -896.020    -479.825    -439.386
  H     -898.190    -471.831    -437.008
  H     -897.040    -477.711    -439.441
  H     -896.340    -474.026    -440.375
  H     -894.600    -476.414    -439.485
  H     -893.220    -476.118    -441.390
  H     -895.340    -475.399    -443.153
  H     -896.010    -477.761    -443.173
  H     -900.000    -475.148    -434.553
  H     -899.610    -476.683    -435.355
  H     -894.230    -477.651    -443.143
  P     -892.540    -473.954    -442.780
  C     -893.680    -471.829    -443.704
  O     -892.480    -472.416    -443.246
  O     -892.450    -474.959    -443.890
  O     -891.260    -474.065    -441.816
  H     -890.550    -474.546    -442.297
  H     -893.497    -470.811    -443.979
  H     -894.413    -471.861    -442.925
  H     -894.040    -472.370    -444.555

 6  7  8  9  10  11  12  13  14  15  25  28  32  33  34  35 0
 6-311+G(2d,p)
 ****
 36  39  40 0
 6-311+G(2d,p)
 ****
 1  2  3  4  5  16  17  18  19  20  21  22  23  24 0
 3-21G
 ****
 26  27  29  30  31  37  38  41  42  43  44  45  46  47 0
 3-21G
 ****
 48 0
 3-21G
 ****


