%nproc=1
%NoSave
%Mem=1900MB
#P OB98/GEN NMR

erre ene a

0 1
  C     -587.306     473.672    -527.544
  O     -585.884     473.785    -527.453
  P     -585.112     474.983    -526.737
  C     -583.186     473.694    -525.513
  O     -583.576     474.563    -526.572
  C     -582.511     472.400    -526.007
  O     -583.446     471.649    -526.821
  C     -581.318     472.731    -526.904
  O     -580.055     473.021    -526.332
  C     -581.285     471.596    -527.930
  O     -580.410     470.535    -527.537
  C     -582.740     471.109    -527.952
  N     -584.481     469.507    -532.490
  C     -583.753     468.813    -531.542
  N     -583.405     467.544    -531.861
  N     -583.390     469.322    -530.396
  C     -583.739     470.620    -530.240
  C     -584.438     471.420    -531.120
  C     -584.890     470.830    -532.364
  O     -585.548     471.397    -533.227
  N     -584.586     472.696    -530.638
  C     -583.944     472.683    -529.484
  N     -583.413     471.437    -529.190
  O     -585.789     475.570    -525.542
  O     -585.065     476.125    -527.884
  H     -580.571     469.780    -528.125
  H     -585.111     476.986    -527.423
  H     -584.753     469.058    -533.351
  H     -583.843     473.530    -528.812
  H     -582.788     470.016    -527.851
  H     -580.924     471.965    -528.896
  H     -583.547     467.141    -532.770
  H     -581.582     473.624    -527.474
  H     -582.692     467.110    -531.267
  H     -582.259     471.746    -525.166
  H     -584.090     473.461    -524.940
  H     -582.512     474.218    -524.828
  P     -579.325     474.451    -526.340
  C     -578.003     473.708    -524.269
  O     -577.937     474.302    -525.555
  O     -580.194     475.338    -525.318
  O     -579.238     475.110    -527.675
  H     -580.002     476.286    -525.440
  H     -577.082     473.929    -523.725
  H     -578.100     472.621    -524.368
  H     -578.853     474.102    -523.698
  H     -587.560     472.777    -528.073
  H     -587.698     474.519    -528.067
  H     -587.725     473.635    -526.560

 3  4  5  6  7  8  9  10  11  12  23  26  30  31 0
 6-311+G(2d,p)
 ****
 33  35  36  37  38 0
 6-311+G(2d,p)
 ****
 1  2  13  14  15  16  17  18  19  20  21  22  24  25 0
 3-21G
 ****
 27  28  29  32  34  39  40  41  42  43  44  45  46  47  48  49 0
 3-21G
 ****


