%nproc=1
%NoSave
%Mem=1900MB
#P OB98/GEN NMR

erre ene a

0 1
  C      157.154    -314.643    -351.998
  O      156.396    -314.998    -353.145
  P      155.480    -313.909    -353.890
  C      153.556    -315.589    -354.157
  O      154.491    -314.769    -354.833
  C      152.667    -316.315    -355.185
  O      152.167    -315.325    -356.120
  C      153.357    -317.381    -356.037
  O      153.443    -318.663    -355.428
  C      152.394    -317.445    -357.225
  O      151.248    -318.250    -356.875
  C      152.009    -315.988    -357.412
  N      152.227    -314.428    -362.286
  C      151.260    -315.055    -361.574
  N      151.289    -315.452    -360.285
  C      152.449    -315.096    -359.696
  C      153.530    -314.452    -360.287
  C      153.387    -314.112    -361.651
  N      154.361    -313.452    -362.368
  N      154.545    -314.278    -359.376
  C      154.083    -314.810    -358.252
  N      152.817    -315.302    -358.406
  O      156.240    -312.817    -354.570
  O      154.499    -313.372    -352.752
  H      150.511    -317.992    -357.468
  H      154.094    -312.521    -353.035
  H      150.343    -315.272    -362.121
  H      154.633    -314.849    -357.316
  H      150.950    -315.870    -357.700
  H      152.847    -317.928    -358.101
  H      154.344    -317.033    -356.388
  H      151.808    -316.745    -354.642
  H      152.932    -314.964    -353.525
  H      154.133    -313.132    -363.285
  H      155.154    -313.070    -361.849
  H      154.078    -316.320    -353.520
  P      154.867    -319.409    -355.503
  C      153.964    -321.859    -355.748
  O      154.613    -320.896    -354.940
  O      155.997    -318.675    -354.865
  O      155.067    -319.646    -357.075
  H      154.442    -320.264    -357.487
  H      154.030    -322.835    -355.247
  H      154.456    -321.940    -356.731
  H      152.919    -321.605    -355.880
  H      157.694    -315.498    -351.649
  H      156.496    -314.298    -351.228
  H      157.843    -313.865    -352.253

 3  4  5  6  7  8  9  10  11  12  22  25  29  30  31  32 0
 6-311+G(2d,p)
 ****
 33  36  37 0
 6-311+G(2d,p)
 ****
 1  2  13  14  15  16  17  18  19  20  21  23  24  26 0
 3-21G
 ****
 27  28  34  35  38  39  40  41  42  43  44  45  46  47  48 0
 3-21G
 ****


