%nproc=1
%NoSave
%Mem=1900MB
#P OB98/GEN NMR

erre ene a

0 1
  C      476.282     424.130      39.902
  O      476.996     425.317      40.260
  P      476.980     426.633      39.339
  C      476.983     428.228      41.362
  O      476.316     427.835      40.161
  C      476.792     429.720      41.654
  O      477.283     430.520      40.561
  C      475.341     430.143      41.867
  O      474.909     429.799      43.169
  C      475.426     431.640      41.587
  O      475.912     432.340      42.742
  C      476.453     431.699      40.456
  N      474.943     434.843      36.715
  C      475.549     435.072      37.904
  N      475.915     434.181      38.849
  C      475.620     432.933      38.456
  C      474.993     432.544      37.278
  C      474.645     433.566      36.382
  N      474.016     433.331      35.186
  N      474.829     431.175      37.244
  C      475.363     430.740      38.372
  N      475.849     431.766      39.135
  O      476.396     426.423      37.980
  O      478.523     427.067      39.228
  H      476.142     433.244      42.459
  H      478.668     427.536      38.385
  H      475.770     436.115      38.119
  H      475.418     429.703      38.672
  H      477.120     432.557      40.557
  H      474.453     432.073      41.327
  H      474.699     429.668      41.117
  H      477.397     429.965      42.535
  H      478.053     428.014      41.249
  H      473.768     434.124      34.612
  H      473.747     432.390      34.948
  H      476.588     427.633      42.189
  P      473.837     428.625      43.379
  C      475.389     427.293      44.933
  O      474.666     427.288      43.716
  O      472.815     428.485      42.303
  O      473.160     428.979      44.788
  H      472.239     428.646      44.793
  H      476.329     427.838      44.792
  H      475.617     426.255      45.202
  H      474.811     427.755      45.735
  H      476.432     423.383      40.654
  H      476.642     423.767      38.962
  H      475.238     424.352      39.822

 3  4  5  6  7  8  9  10  11  12  22  25  29  30  31  32 0
 6-311+G(2d,p)
 ****
 33  36  37 0
 6-311+G(2d,p)
 ****
 1  2  13  14  15  16  17  18  19  20  21  23  24  26 0
 3-21G
 ****
 27  28  34  35  38  39  40  41  42  43  44  45  46  47  48 0
 3-21G
 ****


