%nproc=1
%NoSave
%Mem=1900MB
#P OB98/GEN NMR

erre ene a

0 1
  C       24.150    -218.590     276.199
  O       24.211    -217.668     277.267
  H       24.556    -219.547     276.538
  H       24.744    -218.230     275.353
  H       23.112    -218.734     275.888
  P       23.764    -216.158     276.939
  C       25.696    -214.423     276.642
  O       25.017    -215.560     276.123
  C       26.737    -214.857     277.668
  O       27.628    -215.853     277.110
  C       27.651    -213.731     278.161
  O       27.030    -212.886     279.114
  C       28.766    -214.557     278.775
  O       28.330    -215.104     280.031
  C       28.938    -215.660     277.706
  N       29.931    -215.325     276.683
  C       31.281    -215.473     277.044
  O       31.594    -215.870     278.162
  N       32.252    -215.143     276.122
  C       31.907    -214.715     274.941
  N       32.915    -214.393     274.082
  C       30.502    -214.550     274.524
  C       29.579    -214.868     275.431
  O       23.881    -215.420     278.354
  O       22.440    -215.999     276.263
  H       29.105    -215.544     280.430
  H       23.771    -214.445     278.237
  H       30.263    -214.171     273.535
  H       28.525    -214.771     275.192
  H       29.223    -216.615     278.174
  H       29.670    -213.981     278.977
  H       28.055    -213.150     277.323
  H       26.202    -215.331     278.506
  H       33.862    -214.457     274.418
  H       24.954    -213.768     277.106
  H       32.749    -213.907     273.204
  H       26.192    -213.882     275.829
  P       27.674    -211.431     279.332
  C       28.468    -210.941     281.766
  O       28.747    -211.562     280.517
  O       26.482    -210.597     280.003
  O       28.185    -210.772     278.078
  H       26.505    -209.662     279.714
  H       29.277    -211.121     282.443
  H       27.566    -211.347     282.173
  H       28.352    -209.887     281.622

 6  7  8  9  10  11  12  13  14  15  16  26  30  31  32  33  35 0
 6-311+G(2d,p)
 ****
 37  38 0
 6-311+G(2d,p)
 ****
 1  2  3  4  5  17  18  19  20  21  22  23  24  25 0
 3-21G
 ****
 27  28  29  34  36  39  40  41  42  43  44  45  46 0
 3-21G
 ****


