%nproc=1
%NoSave
%Mem=1900MB
#P OB98/GEN NMR

erre ene a

0 1
  C      403.749      84.757     274.152
  O      404.827      85.604     274.540
  P      405.906      85.245     275.659
  C      405.661      87.210     277.387
  O      405.400      85.854     277.049
  C      405.364      87.545     278.857
  O      403.958      87.295     279.135
  C      406.155      86.624     279.792
  O      407.497      86.927     280.113
  C      405.253      86.431     281.003
  O      405.540      87.351     282.050
  C      403.851      86.681     280.433
  N      401.314      83.012     282.947
  C      402.080      84.045     283.453
  N      402.242      84.079     284.795
  N      402.654      84.951     282.707
  C      402.491      84.745     281.377
  C      401.776      83.750     280.757
  C      401.088      82.783     281.593
  O      400.389      81.855     281.192
  N      401.850      83.844     279.390
  C      402.634      84.881     279.176
  N      403.042      85.472     280.359
  O      407.330      85.495     275.291
  O      405.727      83.651     275.853
  H      405.088      87.045     282.856
  H      406.611      83.292     276.078
  H      400.869      82.350     283.566
  H      402.932      85.256     278.208
  H      403.298      87.382     281.067
  H      405.386      85.426     281.423
  H      401.916      83.349     285.409
  H      406.205      85.639     279.298
  H      402.969      84.702     285.146
  H      405.525      88.610     279.057
  H      405.044      87.818     276.718
  H      406.701      87.454     277.156
  P      408.800      86.156     279.588
  C      409.888      85.266     281.736
  O      409.102      84.946     280.590
  O      409.996      87.169     279.892
  O      408.774      85.783     278.138
  H      410.794      86.921     279.376
  H      410.282      84.341     282.162
  H      409.262      85.774     282.476
  H      410.723      85.917     281.462
  H      403.178      85.236     273.385
  H      403.122      84.568     274.998
  H      404.138      83.831     273.782

 3  4  5  6  7  8  9  10  11  12  23  26  30  31 0
 6-311+G(2d,p)
 ****
 33  35  36  37  38 0
 6-311+G(2d,p)
 ****
 1  2  13  14  15  16  17  18  19  20  21  22  24  25 0
 3-21G
 ****
 27  28  29  32  34  39  40  41  42  43  44  45  46  47  48  49 0
 3-21G
 ****


