%nproc=1
%NoSave
%Mem=1900MB
#P OB98/GEN NMR

erre ene a

0 1
  C      286.082     164.848       3.148
  O      285.868     166.210       2.843
  P      285.891     166.791       1.352
  C      283.446     167.644       1.117
  O      284.408     166.665       0.742
  C      282.438     167.132       2.159
  O      283.083     167.034       3.446
  C      281.292     168.136       2.322
  O      280.198     168.121       1.427
  C      280.912     168.065       3.799
  O      279.777     167.226       4.029
  C      282.160     167.470       4.455
  N      281.760     170.509       8.504
  C      280.898     169.515       8.074
  N      279.696     169.453       8.685
  N      281.185     168.674       7.112
  C      282.379     168.917       6.522
  C      283.326     169.858       6.870
  C      283.009     170.753       7.961
  O      283.706     171.699       8.321
  N      284.390     169.860       6.006
  C      284.078     168.948       5.110
  N      282.849     168.376       5.355
  O      287.054     166.401       0.494
  O      286.006     168.377       1.630
  H      279.647     167.157       4.997
  H      286.544     168.761       0.915
  H      281.448     171.173       9.202
  H      284.680     168.690       4.247
  H      281.899     166.579       5.041
  H      280.649     169.061       4.179
  H      279.386     170.174       9.333
  H      281.725     169.138       2.195
  H      278.981     168.857       8.291
  H      282.104     166.115       1.916
  H      282.933     167.965       0.206
  H      283.959     168.523       1.525
  P      279.375     169.395       0.914
  C      279.325     168.847      -1.585
  O      279.828     169.722      -0.586
  O      279.984     170.622       1.743
  O      277.897     169.313       1.124
  H      279.341     171.356       1.774
  H      279.920     168.969      -2.497
  H      278.282     169.100      -1.810
  H      279.383     167.803      -1.255
  H      286.018     164.705       4.207
  H      287.052     164.554       2.806
  H      285.337     164.252       2.662

 3  4  5  6  7  8  9  10  11  12  23  26  30  31 0
 6-311+G(2d,p)
 ****
 33  35  36  37  38 0
 6-311+G(2d,p)
 ****
 1  2  13  14  15  16  17  18  19  20  21  22  24  25 0
 3-21G
 ****
 27  28  29  32  34  39  40  41  42  43  44  45  46  47  48  49 0
 3-21G
 ****


