%nproc=1
%NoSave
%Mem=1900MB
#P OB98/GEN NMR

erre ene a

0 1
  C      672.136     -90.599    -150.288
  O      672.572     -89.510    -149.478
  P      674.085     -88.990    -149.640
  C      675.124     -86.892    -150.724
  O      674.121     -87.900    -150.816
  C      674.640     -85.584    -151.373
  O      674.340     -85.834    -152.775
  C      673.352     -85.002    -150.771
  O      673.458     -84.104    -149.674
  C      672.816     -84.185    -151.950
  O      673.461     -82.898    -151.980
  C      673.231     -84.999    -153.176
  N      671.160     -86.910    -157.449
  C      672.236     -86.114    -157.240
  N      672.719     -85.656    -156.066
  C      671.982     -86.093    -155.038
  C      670.857     -86.903    -155.096
  C      670.443     -87.314    -156.374
  N      669.340     -88.110    -156.590
  N      670.359     -87.137    -153.834
  C      671.154     -86.462    -153.029
  N      672.158     -85.829    -153.708
  O      675.131     -90.052    -149.719
  O      674.280     -88.092    -148.334
  H      674.392     -83.067    -152.218
  H      675.189     -88.202    -148.004
  H      672.785     -85.823    -158.129
  H      671.043     -86.401    -151.950
  H      673.578     -84.366    -153.992
  H      671.742     -83.998    -151.871
  H      672.641     -85.806    -150.525
  H      675.445     -84.836    -151.321
  H      676.029     -87.236    -151.225
  H      669.085     -88.323    -157.536
  H      668.758     -88.372    -155.802
  H      675.369     -86.770    -149.671
  P      673.851     -84.622    -148.209
  C      676.157     -84.922    -147.006
  O      675.451     -84.764    -148.216
  O      673.122     -85.842    -147.748
  O      673.610     -83.325    -147.307
  H      674.240     -82.598    -147.473
  H      677.186     -85.218    -147.236
  H      675.699     -85.708    -146.388
  H      676.174     -83.980    -146.458
  H      671.114     -90.824    -150.063
  H      672.742     -91.458    -150.088
  H      672.224     -90.333    -151.321

 3  4  5  6  7  8  9  10  11  12  22  25  29  30  31  32 0
 6-311+G(2d,p)
 ****
 33  36  37 0
 6-311+G(2d,p)
 ****
 1  2  13  14  15  16  17  18  19  20  21  23  24  26 0
 3-21G
 ****
 27  28  34  35  38  39  40  41  42  43  44  45  46  47  48 0
 3-21G
 ****


