%nproc=1
%NoSave
%Mem=1900MB
#P OB98/GEN NMR

erre ene a

0 1
  C       -4.282      13.225    -411.760
  O       -4.008      12.991    -413.129
  H       -4.798      12.355    -411.353
  H       -4.927      14.102    -411.652
  H       -3.348      13.376    -411.210
  P       -3.227      14.153    -413.912
  C       -1.073      13.417    -412.674
  O       -1.965      14.481    -412.974
  C        0.377      13.895    -412.751
  O        0.697      14.336    -414.083
  C        0.693      15.078    -411.840
  O        0.922      14.642    -410.509
  C        1.963      15.604    -412.487
  O        3.088      14.795    -412.081
  C        1.687      15.398    -413.989
  N        2.933      19.908    -416.094
  C        3.636      19.057    -415.322
  N        3.226      17.896    -414.762
  C        1.944      17.643    -415.071
  C        1.099      18.424    -415.850
  C        1.646      19.601    -416.388
  N        0.924      20.467    -417.183
  N       -0.145      17.844    -415.950
  C       -0.045      16.708    -415.281
  N        1.191      16.558    -414.704
  O       -4.055      15.313    -414.341
  O       -2.554      13.319    -415.105
  H        3.892      15.212    -412.435
  H       -2.249      12.451    -414.785
  H        4.666      19.339    -415.124
  H       -0.820      15.961    -415.208
  H        2.581      15.057    -414.522
  H        2.184      16.631    -412.191
  H       -0.083      15.846    -411.895
  H        1.026      13.040    -412.525
  H       -1.225      12.585    -413.372
  H        1.335      21.365    -417.381
  H       -0.063      20.296    -417.297
  H       -1.303      13.067    -411.669
  P        1.042      15.703    -409.312
  C       -0.913      14.700    -407.973
  O       -0.427      15.841    -408.674
  O        1.679      16.998    -409.675
  O        1.860      14.934    -408.172
  H        2.474      15.546    -407.726
  H       -1.893      14.905    -407.594
  H       -0.256      14.475    -407.159
  H       -0.956      13.864    -408.639

 6  7  8  9  10  11  12  13  14  15  25  28  32  33  34  35 0
 6-311+G(2d,p)
 ****
 36  39  40 0
 6-311+G(2d,p)
 ****
 1  2  3  4  5  16  17  18  19  20  21  22  23  24 0
 3-21G
 ****
 26  27  29  30  31  37  38  41  42  43  44  45  46  47 0
 3-21G
 ****
 48 0
 3-21G
 ****


