%nproc=1
%NoSave
%Mem=1900MB
#P OB98/GEN NMR

erre ene a

0 1
  C     -147.841     -76.614     -54.703
  O     -148.222     -76.488     -53.342
  P     -149.790     -76.330     -53.021
  C     -150.252     -78.816     -52.405
  O     -150.463     -77.753     -53.330
  C     -151.581     -79.250     -51.789
  O     -152.455     -79.809     -52.794
  C     -151.451     -80.327     -50.724
  O     -151.081     -79.798     -49.458
  C     -152.872     -80.864     -50.675
  O     -153.702     -79.993     -49.886
  C     -153.288     -80.805     -52.152
  N     -155.747     -84.660     -54.309
  C     -156.226     -83.434     -53.888
  N     -157.556     -83.234     -54.013
  N     -155.467     -82.492     -53.402
  C     -154.157     -82.834     -53.334
  C     -153.567     -84.021     -53.721
  C     -154.421     -85.061     -54.245
  O     -154.067     -86.186     -54.584
  N     -152.216     -83.999     -53.504
  C     -151.984     -82.807     -52.996
  N     -153.133     -82.081     -52.825
  O     -150.322     -75.406     -54.215
  O     -150.094     -75.748     -51.682
  H     -153.300     -79.963     -48.993
  H     -151.189     -75.024     -53.980
  H     -156.379     -85.360     -54.677
  H     -151.005     -82.434     -52.715
  H     -154.328     -80.480     -52.274
  H     -152.936     -81.858     -50.226
  H     -158.202     -83.942     -54.320
  H     -150.770     -81.126     -51.048
  H     -157.939     -82.363     -53.653
  H     -152.072     -78.357     -51.377
  H     -149.578     -78.479     -51.617
  H     -149.782     -79.657     -52.927
  P     -149.761     -80.417     -48.777
  C     -148.190     -78.605     -49.769
  O     -148.544     -79.972     -49.717
  O     -149.915     -81.985     -49.057
  O     -149.622     -80.109     -47.321
  H     -149.439     -82.498     -48.374
  H     -147.199     -78.515     -50.231
  H     -148.145     -78.169     -48.767
  H     -148.911     -78.054     -50.380
  H     -146.777     -76.711     -54.768
  H     -148.154     -75.745     -55.243
  H     -148.305     -77.482     -55.124

 3  4  5  6  7  8  9  10  11  12  23  26  30  31 0
 6-311+G(2d,p)
 ****
 33  35  36  37  38 0
 6-311+G(2d,p)
 ****
 1  2  13  14  15  16  17  18  19  20  21  22  24  25 0
 3-21G
 ****
 27  28  29  32  34  39  40  41  42  43  44  45  46  47  48  49 0
 3-21G
 ****


