%nproc=1
%NoSave
%Mem=1900MB
#P OB98/GEN NMR

erre ene a

0 1
  C      197.041     311.929     -14.331
  O      197.164     310.536     -14.151
  H      197.269     312.426     -13.384
  H      196.013     312.171     -14.616
  H      197.730     312.297     -15.096
  P      197.335     309.605     -15.440
  C      196.280     309.771     -17.790
  O      196.055     309.820     -16.386
  C      194.994     310.024     -18.576
  O      194.830     311.441     -18.800
  C      195.009     309.360     -19.956
  O      194.562     308.014     -19.967
  C      194.063     310.258     -20.749
  O      192.699     309.821     -20.624
  C      194.249     311.631     -20.096
  N      194.452     315.651     -23.250
  C      193.345     314.950     -22.810
  N      192.154     315.355     -23.303
  N      193.415     313.943     -21.979
  C      194.680     313.594     -21.652
  C      195.853     314.199     -22.043
  C      195.764     315.359     -22.903
  O      196.712     316.022     -23.309
  N      196.952     313.540     -21.541
  C      196.440     312.492     -20.926
  N      195.067     312.526     -20.897
  O      197.095     308.126     -14.866
  O      198.664     309.693     -16.127
  H      192.141     310.407     -21.169
  H      197.627     307.488     -15.376
  H      194.335     316.434     -23.867
  H      197.016     311.708     -20.445
  H      193.284     312.134     -19.944
  H      194.304     310.234     -21.813
  H      192.054     316.066     -24.009
  H      196.004     309.429     -20.408
  H      191.342     314.752     -23.156
  H      194.134     309.690     -17.980
  H      196.663     308.774     -18.009
  H      197.050     310.491     -18.076
  P      194.942     307.033     -21.169
  C      194.878     307.261     -23.784
  O      194.373     307.651     -22.524
  O      193.997     305.767     -20.913
  O      196.383     306.647     -21.251
  H      194.487     305.055     -20.464
  H      194.361     307.793     -24.555
  H      194.732     306.209     -23.917
  H      195.923     307.486     -23.834

 6  7  8  9  10  11  12  13  14  15  26  29  33  34 0
 6-311+G(2d,p)
 ****
 36  38  39  40  41 0
 6-311+G(2d,p)
 ****
 1  2  3  4  5  16  17  18  19  20  21  22  23  24  25 0
 3-21G
 ****
 27  28  30  31  32  35  37  42  43  44  45  46  47 0
 3-21G
 ****
 48  49 0
 3-21G
 ****


