%nproc=1
%NoSave
%Mem=1900MB
#P OB98/GEN NMR

erre ene a

0 1
  C      553.689     312.789    -646.982
  O      554.415     313.113    -648.150
  H      552.805     312.208    -647.264
  H      553.360     313.702    -646.484
  H      554.299     312.192    -646.299
  P      555.856     313.792    -647.938
  C      557.934     314.207    -649.432
  O      556.611     313.700    -649.348
  C      558.861     313.175    -650.065
  O      559.014     312.031    -649.191
  C      558.365     312.620    -651.402
  O      558.693     313.485    -652.482
  C      559.155     311.325    -651.479
  O      560.518     311.606    -651.866
  C      559.111     310.841    -650.030
  N      557.189     307.508    -646.724
  C      558.380     308.199    -646.690
  N      559.185     307.970    -645.638
  N      558.757     309.043    -647.615
  C      557.861     309.180    -648.623
  C      556.643     308.541    -648.762
  C      556.236     307.619    -647.728
  O      555.179     306.994    -647.693
  N      556.002     308.939    -649.911
  C      556.843     309.784    -650.477
  N      557.987     309.960    -649.733
  O      556.635     312.725    -647.029
  O      555.840     315.141    -647.305
  H      561.013     310.769    -651.781
  H      557.219     313.207    -646.408
  H      556.954     306.862    -645.988
  H      556.666     310.302    -651.407
  H      560.016     310.305    -649.731
  H      558.747     310.630    -652.219
  H      558.989     307.294    -644.913
  H      557.295     312.397    -651.371
  H      560.056     308.486    -645.575
  H      559.856     313.629    -650.185
  H      558.299     314.443    -648.424
  H      557.926     315.122    -650.031
  P      557.625     313.628    -653.677
  C      557.232     315.484    -655.448
  O      557.679     315.161    -654.132
  O      556.215     313.515    -652.912
  O      557.755     312.610    -654.762
  H      555.528     313.225    -653.528
  H      557.326     316.538    -655.608
  H      556.207     315.197    -655.557
  H      557.827     314.959    -656.166

 6  7  8  9  10  11  12  13  14  15  26  29  33  34 0
 6-311+G(2d,p)
 ****
 36  38  39  40  41 0
 6-311+G(2d,p)
 ****
 1  2  3  4  5  16  17  18  19  20  21  22  23  24  25 0
 3-21G
 ****
 27  28  30  31  32  35  37  42  43  44  45  46  47 0
 3-21G
 ****
 48  49 0
 3-21G
 ****


