%nproc=1
%NoSave
%Mem=1900MB
#P OB98/GEN NMR

erre ene a

0 1
  C      210.208    -310.398    -351.329
  O      209.746    -309.084    -351.572
  H      210.242    -310.566    -350.248
  H      211.216    -310.519    -351.733
  H      209.539    -311.140    -351.773
  P      209.345    -308.668    -353.067
  C      211.710    -308.656    -354.102
  O      210.448    -309.313    -354.034
  C      212.455    -309.046    -355.376
  O      213.735    -308.337    -355.401
  C      212.767    -310.554    -355.491
  O      212.746    -310.889    -356.888
  C      214.181    -310.598    -354.941
  O      214.815    -311.820    -355.233
  C      214.758    -309.338    -355.591
  N      216.027    -308.917    -355.011
  C      217.171    -309.593    -355.425
  O      217.175    -310.501    -356.253
  N      218.343    -309.197    -354.832
  C      218.469    -308.214    -353.891
  O      219.546    -307.884    -353.409
  C      217.223    -307.556    -353.477
  C      216.076    -307.926    -354.046
  O      209.082    -307.216    -353.289
  O      208.044    -309.554    -353.371
  H      207.241    -309.018    -353.221
  H      215.715    -311.845    -354.841
  H      219.186    -309.674    -355.120
  H      217.289    -306.791    -352.714
  H      215.133    -307.468    -353.762
  H      214.877    -309.477    -356.669
  H      214.167    -310.504    -353.854
  H      212.050    -311.179    -354.952
  H      211.883    -308.693    -356.247
  H      212.295    -308.957    -353.226
  H      211.552    -307.573    -354.077
  P      211.628    -311.844    -357.544
  C      212.947    -314.035    -357.209
  O      211.752    -313.320    -356.921
  O      211.637    -311.826    -359.041
  O      210.229    -311.307    -356.984
  H      209.549    -311.398    -357.679
  H      212.909    -314.997    -356.741
  H      213.788    -313.490    -356.835
  H      213.043    -314.157    -358.268

 6  7  8  9  10  11  12  13  14  15  16  27  31  32  33  34  35 0
 6-311+G(2d,p)
 ****
 36  37 0
 6-311+G(2d,p)
 ****
 1  2  3  4  5  17  18  19  20  21  22  23  24  25 0
 3-21G
 ****
 26  28  29  30  38  39  40  41  42  43  44  45 0
 3-21G
 ****


