%nproc=1
%NoSave
%Mem=1900MB
#P OB98/GEN NMR

erre ene a

0 1
  C     -557.115    -199.040     280.317
  O     -558.209    -199.618     279.596
  P     -559.085    -200.709     280.383
  C     -559.745    -202.451     278.562
  O     -560.145    -201.332     279.343
  C     -559.716    -202.065     277.087
  O     -558.490    -201.398     276.723
  C     -559.798    -203.271     276.151
  O     -561.119    -203.791     276.100
  C     -559.303    -202.651     274.839
  O     -560.366    -201.904     274.211
  C     -558.210    -201.686     275.335
  N     -553.515    -200.846     273.497
  C     -554.639    -200.101     273.460
  N     -555.852    -200.394     273.976
  C     -555.834    -201.600     274.579
  C     -554.765    -202.464     274.704
  C     -553.553    -202.045     274.120
  N     -552.400    -202.815     274.156
  N     -555.122    -203.597     275.399
  C     -556.402    -203.430     275.667
  N     -556.873    -202.228     275.205
  O     -559.991    -199.821     281.362
  O     -558.269    -201.714     281.128
  H     -560.727    -201.286     274.885
  H     -559.683    -199.929     282.277
  H     -554.560    -199.150     272.946
  H     -557.030    -204.147     276.193
  H     -558.233    -200.739     274.788
  H     -558.958    -203.401     274.117
  H     -559.103    -204.056     276.467
  H     -560.559    -201.384     276.887
  H     -560.431    -203.289     278.713
  H     -551.600    -202.474     273.639
  H     -552.443    -203.746     274.533
  H     -558.758    -202.774     278.903
  P     -561.315    -205.367     276.351
  C     -563.373    -205.495     274.819
  O     -562.896    -205.593     276.154
  O     -561.140    -205.465     277.934
  O     -560.418    -206.247     275.539
  H     -561.639    -204.757     278.402
  H     -564.448    -205.705     274.824
  H     -562.874    -206.233     274.185
  H     -563.204    -204.493     274.433
  H     -556.610    -198.333     279.693
  H     -556.432    -199.811     280.607
  H     -557.485    -198.545     281.190

 3  4  5  6  7  8  9  10  11  12  22  25  29  30  31  32 0
 6-311+G(2d,p)
 ****
 33  36  37 0
 6-311+G(2d,p)
 ****
 1  2  13  14  15  16  17  18  19  20  21  23  24  26 0
 3-21G
 ****
 27  28  34  35  38  39  40  41  42  43  44  45  46  47  48 0
 3-21G
 ****


