%nproc=1
%NoSave
%Mem=1900MB
#P OB98/GEN NMR

erre ene a

0 1
  C      158.008    -145.977     115.928
  O      159.361    -145.811     115.526
  P      160.512    -146.404     116.473
  C      160.429    -144.176     117.795
  O      161.244    -145.151     117.162
  C      161.282    -143.118     118.496
  O      160.405    -142.100     119.057
  C      162.147    -143.651     119.641
  O      163.347    -142.868     119.669
  C      161.319    -143.335     120.874
  O      162.107    -143.305     122.059
  C      160.721    -141.992     120.462
  N      158.931    -140.347     124.961
  C      160.190    -140.535     124.510
  N      160.586    -140.976     123.297
  C      159.524    -141.235     122.515
  C      158.185    -141.122     122.849
  C      157.896    -140.650     124.141
  N      156.615    -140.445     124.599
  N      157.388    -141.504     121.789
  C      158.229    -141.841     120.834
  N      159.529    -141.671     121.219
  O      161.592    -146.936     115.417
  O      160.077    -147.487     117.400
  H      161.558    -142.939     122.782
  H      161.628    -147.912     115.442
  H      160.984    -140.295     125.213
  H      157.950    -142.211     119.858
  H      161.432    -141.166     120.584
  H      160.542    -144.096     121.003
  H      162.390    -144.717     119.559
  H      161.905    -142.622     117.742
  H      159.805    -144.674     118.544
  H      156.493    -139.978     125.483
  H      155.847    -140.487     123.936
  H      159.775    -143.706     117.053
  P      164.730    -143.647     119.437
  C      164.231    -145.410     121.274
  O      165.083    -144.377     120.817
  O      165.807    -142.466     119.343
  O      164.746    -144.509     118.218
  H      166.562    -142.748     118.793
  H      164.828    -146.152     121.807
  H      163.705    -145.901     120.449
  H      163.491    -144.987     121.964
  H      157.362    -145.532     115.200
  H      157.857    -145.503     116.875
  H      157.786    -147.020     116.011

 3  4  5  6  7  8  9  10  11  12  22  25  29  30  31  32 0
 6-311+G(2d,p)
 ****
 33  36  37 0
 6-311+G(2d,p)
 ****
 1  2  13  14  15  16  17  18  19  20  21  23  24  26 0
 3-21G
 ****
 27  28  34  35  38  39  40  41  42  43  44  45  46  47  48 0
 3-21G
 ****


