%nproc=1
%NoSave
%Mem=1900MB
#P OB98/GEN NMR

erre ene a

0 1
  C       78.231    -365.147     440.415
  O       77.285    -365.279     441.472
  P       77.384    -366.577     442.410
  C       76.701    -368.255     440.532
  O       76.390    -367.676     441.792
  C       75.614    -369.256     440.122
  O       75.926    -369.751     438.785
  C       75.489    -370.487     441.043
  O       74.109    -370.873     441.033
  C       76.323    -371.539     440.325
  O       75.972    -372.868     440.707
  C       76.015    -371.188     438.867
  N       77.177    -374.638     435.339
  C       76.037    -374.515     436.117
  N       75.045    -375.412     435.868
  N       75.884    -373.604     437.044
  C       76.949    -372.777     437.163
  C       78.149    -372.819     436.484
  C       78.293    -373.805     435.429
  O       79.248    -373.897     434.663
  N       79.018    -371.865     436.935
  C       78.329    -371.202     437.835
  N       77.054    -371.684     437.973
  O       76.647    -366.106     443.748
  O       78.772    -367.093     442.667
  H       74.994    -372.957     440.622
  H       77.290    -365.764     444.401
  H       77.232    -375.346     434.624
  H       78.690    -370.358     438.418
  H       75.052    -371.617     438.530
  H       77.386    -371.387     440.546
  H       75.088    -376.109     435.149
  H       75.831    -370.301     442.057
  H       74.186    -375.324     436.410
  H       74.663    -368.731     440.057
  H       77.651    -368.792     440.615
  H       76.810    -367.466     439.775
  P       73.247    -370.598     442.357
  C       72.908    -373.167     442.381
  O       72.350    -371.890     442.633
  O       72.175    -369.505     441.857
  O       74.035    -370.076     443.525
  H       71.950    -368.901     442.592
  H       72.365    -373.912     442.969
  H       73.967    -373.206     442.656
  H       72.803    -373.408     441.315
  H       78.043    -364.240     439.879
  H       78.141    -365.980     439.749
  H       79.220    -365.122     440.823

 3  4  5  6  7  8  9  10  11  12  23  26  30  31 0
 6-311+G(2d,p)
 ****
 33  35  36  37  38 0
 6-311+G(2d,p)
 ****
 1  2  13  14  15  16  17  18  19  20  21  22  24  25 0
 3-21G
 ****
 27  28  29  32  34  39  40  41  42  43  44  45  46  47  48  49 0
 3-21G
 ****


