%nproc=1
%NoSave
%Mem=1900MB
#P OB98/GEN NMR

erre ene a

0 1
  C     1638.791     826.431     580.353
  O     1640.083     826.276     580.952
  P     1640.797     827.635     581.469
  C     1640.275     826.829     583.911
  O     1640.219     827.874     582.951
  C     1641.015     827.306     585.158
  O     1642.342     827.777     584.814
  C     1640.330     828.468     585.874
  O     1639.184     828.022     586.589
  C     1641.492     828.978     586.742
  O     1641.616     828.159     587.924
  C     1642.705     828.752     585.825
  N     1643.168     829.995     585.212
  C     1644.143     830.712     585.895
  O     1644.604     830.325     586.985
  N     1644.576     831.842     585.323
  C     1644.135     832.390     584.136
  O     1644.578     833.404     583.661
  C     1643.079     831.620     583.464
  C     1642.646     830.476     584.022
  O     1640.081     828.742     580.579
  O     1642.286     827.597     581.345
  H     1639.149     828.527     580.389
  H     1641.879     827.269     587.611
  H     1645.334     832.354     585.799
  H     1642.653     832.022     582.558
  H     1641.839     829.923     583.557
  H     1643.531     828.323     586.373
  H     1641.345     829.995     587.073
  H     1640.063     829.229     585.146
  H     1641.132     826.448     585.839
  H     1640.784     825.955     583.489
  H     1639.245     826.513     584.141
  P     1637.874     828.933     586.493
  C     1636.167     827.000     586.031
  O     1636.856     828.128     585.546
  O     1638.381     830.135     585.563
  O     1637.313     829.339     587.819
  H     1638.934     829.822     584.817
  H     1635.305     826.803     585.381
  H     1635.811     827.154     587.051
  H     1636.817     826.108     586.003
  H     1638.420     825.473     580.052
  H     1638.869     827.068     579.497
  H     1638.119     826.867     581.062

 3  4  5  6  7  8  9  10  11  12  13  24  28  29  30  31  32 0
 6-311+G(2d,p)
 ****
 33  34 0
 6-311+G(2d,p)
 ****
 1  2  14  15  16  17  18  19  20  21  22  23  25  26  27 0
 3-21G
 ****
 35  36  37  38  39  40  41  42  43  44  45 0
 3-21G
 ****


