%nproc=1
%NoSave
%Mem=1900MB
#P OB98/GEN NMR

erre ene a

0 1
  C     -789.280    -241.192       3.006
  O     -788.696    -242.413       3.414
  H     -788.977    -240.406       3.709
  H     -790.371    -241.266       3.009
  H     -788.925    -240.925       2.002
  P     -789.048    -243.705       2.530
  C     -791.149    -244.213       3.939
  O     -790.641    -243.854       2.659
  C     -792.679    -244.170       3.947
  O     -793.174    -245.325       3.222
  C     -793.281    -244.215       5.357
  O     -794.427    -243.361       5.402
  C     -793.716    -245.664       5.518
  O     -794.777    -245.810       6.454
  C     -794.089    -246.029       4.076
  N     -796.112    -250.559       5.286
  C     -796.503    -249.291       5.556
  N     -795.907    -248.138       5.179
  C     -794.832    -248.386       4.414
  C     -794.309    -249.622       4.059
  C     -794.998    -250.744       4.538
  N     -794.595    -252.038       4.285
  N     -793.163    -249.458       3.290
  C     -793.013    -248.154       3.183
  N     -793.982    -247.461       3.853
  O     -788.262    -244.932       2.843
  O     -788.871    -243.136       1.048
  H     -794.414    -245.712       7.357
  H     -789.268    -242.253       0.950
  H     -797.402    -249.193       6.160
  H     -792.210    -247.665       2.637
  H     -795.109    -245.735       3.815
  H     -792.862    -246.262       5.862
  H     -792.566    -243.919       6.129
  H     -793.013    -243.277       3.397
  H     -790.758    -243.529       4.702
  H     -795.161    -252.797       4.661
  H     -793.779    -252.207       3.718
  H     -790.792    -245.221       4.171
  P     -794.197    -241.780       5.578
  C     -794.831    -241.837       8.091
  O     -793.841    -241.487       7.117
  O     -795.240    -240.898       4.978
  O     -792.774    -241.554       4.851
  H     -792.795    -240.705       4.381
  H     -794.472    -241.592       9.069
  H     -795.029    -242.887       8.036
  H     -795.732    -241.293       7.895

 6  7  8  9  10  11  12  13  14  15  25  28  32  33  34  35 0
 6-311+G(2d,p)
 ****
 36  39  40 0
 6-311+G(2d,p)
 ****
 1  2  3  4  5  16  17  18  19  20  21  22  23  24 0
 3-21G
 ****
 26  27  29  30  31  37  38  41  42  43  44  45  46  47 0
 3-21G
 ****
 48 0
 3-21G
 ****


