%nproc=1
%NoSave
%Mem=1900MB
#P OB98/GEN NMR

erre ene a

0 1
  C     -671.312     309.309    -189.133
  O     -671.220     308.236    -190.053
  H     -671.432     310.239    -189.693
  H     -670.405     309.372    -188.529
  H     -672.185     309.173    -188.489
  P     -671.005     306.774    -189.430
  C     -668.563     306.793    -190.299
  O     -669.423     306.680    -189.173
  C     -667.265     306.020    -190.064
  O     -666.661     306.429    -188.824
  C     -667.439     304.512    -189.975
  O     -667.473     303.936    -191.273
  C     -666.174     304.116    -189.225
  O     -665.069     304.058    -190.148
  C     -665.981     305.291    -188.249
  N     -665.362     302.697    -183.866
  C     -664.788     302.549    -185.078
  N     -665.041     303.234    -186.209
  C     -665.985     304.170    -186.005
  C     -666.661     304.434    -184.822
  C     -666.311     303.650    -183.708
  N     -666.895     303.801    -182.473
  N     -667.564     305.456    -184.989
  C     -667.395     305.848    -186.234
  N     -666.481     305.077    -186.903
  O     -671.617     305.649    -190.194
  O     -671.582     306.985    -187.951
  H     -665.259     303.333    -190.776
  H     -671.309     307.850    -187.599
  H     -664.033     301.774    -185.149
  H     -667.899     306.688    -186.692
  H     -664.919     305.558    -188.147
  H     -666.249     303.136    -188.757
  H     -668.314     304.234    -189.375
  H     -666.568     306.287    -190.871
  H     -668.338     307.848    -190.498
  H     -666.726     303.072    -181.790
  H     -667.687     304.419    -182.395
  H     -669.095     306.383    -191.165
  P     -668.416     302.678    -191.596
  C     -666.491     300.978    -191.718
  O     -667.638     301.412    -190.990
  O     -668.828     302.566    -193.028
  O     -669.652     302.847    -190.602
  H     -670.401     302.283    -190.902
  H     -666.055     300.134    -191.226
  H     -665.776     301.773    -191.764
  H     -666.782     300.702    -192.710

 6  7  8  9  10  11  12  13  14  15  25  28  32  33  34  35 0
 6-311+G(2d,p)
 ****
 36  39  40 0
 6-311+G(2d,p)
 ****
 1  2  3  4  5  16  17  18  19  20  21  22  23  24 0
 3-21G
 ****
 26  27  29  30  31  37  38  41  42  43  44  45  46  47 0
 3-21G
 ****
 48 0
 3-21G
 ****


