%nproc=1
%NoSave
%Mem=1900MB
#P OB98/GEN NMR

erre ene a

0 1
  C     -215.765     240.589     -14.846
  O     -214.968     239.449     -14.562
  P     -215.544     237.956     -14.734
  C     -217.183     236.492     -13.363
  O     -216.623     237.782     -13.558
  C     -218.627     236.611     -12.858
  O     -219.393     237.373     -13.825
  C     -219.338     235.260     -12.662
  O     -220.209     235.407     -11.535
  C     -220.140     235.108     -13.941
  O     -221.230     234.222     -13.800
  C     -220.534     236.565     -14.210
  N     -220.888     236.802     -15.606
  C     -222.238     236.757     -15.941
  O     -223.103     236.502     -15.099
  N     -222.602     237.005     -17.249
  C     -221.690     237.191     -18.150
  N     -222.100     237.491     -19.416
  C     -220.240     237.134     -17.853
  C     -219.920     236.965     -16.572
  O     -214.506     236.888     -14.785
  O     -216.473     238.031     -16.030
  H     -221.799     234.544     -13.076
  H     -215.968     237.909     -16.871
  H     -219.519     237.273     -18.642
  H     -218.884     236.938     -16.260
  H     -221.362     236.862     -13.560
  H     -219.491     234.728     -14.738
  H     -218.642     234.438     -12.478
  H     -218.620     237.181     -11.925
  H     -223.089     237.687     -19.539
  H     -216.587     235.973     -12.609
  H     -221.481     237.951     -20.069
  H     -217.136     235.924     -14.297
  P     -220.792     234.073     -10.845
  C     -222.753     232.433     -11.305
  O     -222.156     233.683     -11.588
  O     -221.325     234.637      -9.439
  O     -219.810     232.968     -10.606
  H     -221.331     233.912      -8.786
  H     -223.671     232.342     -11.895
  H     -223.012     232.363     -10.248
  H     -222.076     231.613     -11.583
  H     -215.195     241.476     -14.667
  H     -216.629     240.587     -14.214
  H     -216.072     240.563     -15.871

 3  4  5  6  7  8  9  10  11  12  13  23  27  28  29  30  32 0
 6-311+G(2d,p)
 ****
 34  35 0
 6-311+G(2d,p)
 ****
 1  2  14  15  16  17  18  19  20  21  22  24  25  26 0
 3-21G
 ****
 31  33  36  37  38  39  40  41  42  43  44  45  46 0
 3-21G
 ****


