%nproc=1
%NoSave
%Mem=1900MB
#P OB98/GEN NMR

erre ene a

0 1
  C       32.474    -127.411      44.936
  O       33.639    -126.626      44.734
  P       33.482    -125.030      44.759
  C       32.542    -124.939      42.327
  O       33.557    -124.536      43.231
  C       33.143    -125.732      41.162
  O       32.070    -126.424      40.470
  C       33.880    -124.881      40.117
  O       34.944    -125.688      39.599
  C       32.827    -124.668      39.044
  O       33.396    -124.334      37.782
  C       32.111    -126.016      39.084
  N       29.337    -125.271      34.916
  C       30.707    -125.189      35.095
  N       31.442    -124.932      33.989
  N       31.302    -125.350      36.247
  C       30.438    -125.616      37.258
  C       29.065    -125.683      37.217
  C       28.423    -125.544      35.928
  O       27.225    -125.693      35.709
  N       28.533    -125.887      38.461
  C       29.585    -126.024      39.242
  N       30.764    -125.916      38.550
  O       34.870    -124.543      45.381
  O       32.297    -124.504      45.507
  H       33.869    -125.124      37.446
  H       34.797    -124.420      46.350
  H       28.939    -125.158      34.002
  H       29.558    -126.209      40.305
  H       32.638    -126.792      38.515
  H       32.154    -123.854      39.339
  H       31.052    -124.828      33.065
  H       34.272    -123.941      40.519
  H       32.452    -124.898      34.085
  H       33.811    -126.496      41.573
  H       32.052    -124.047      41.924
  H       31.792    -125.537      42.859
  P       36.431    -125.083      39.634
  C       36.599    -125.138      37.047
  O       37.164    -125.528      38.284
  O       37.152    -125.973      40.754
  O       36.507    -123.629      39.975
  H       37.821    -125.437      41.218
  H       37.379    -125.153      36.280
  H       36.175    -124.128      37.097
  H       35.812    -125.846      36.766
  H       32.731    -128.449      44.893
  H       31.758    -127.189      44.173
  H       32.055    -127.187      45.895

 3  4  5  6  7  8  9  10  11  12  23  26  30  31 0
 6-311+G(2d,p)
 ****
 33  35  36  37  38 0
 6-311+G(2d,p)
 ****
 1  2  13  14  15  16  17  18  19  20  21  22  24  25 0
 3-21G
 ****
 27  28  29  32  34  39  40  41  42  43  44  45  46  47  48  49 0
 3-21G
 ****


