%nproc=1
%NoSave
%Mem=1900MB
#P OB98/GEN NMR

erre ene a

0 1
  C      -21.379     -60.252     -76.046
  O      -21.954     -59.597     -77.157
  P      -23.392     -58.903     -77.118
  C      -23.264     -58.221     -79.622
  O      -23.993     -58.906     -78.609
  C      -23.980     -58.224     -80.982
  O      -23.955     -59.556     -81.535
  C      -25.456     -57.858     -80.800
  O      -25.850     -56.502     -80.723
  C      -26.198     -58.683     -81.844
  O      -26.500     -57.935     -83.023
  C      -25.220     -59.816     -82.163
  N      -27.899     -63.925     -83.442
  C      -27.415     -62.916     -84.251
  N      -27.869     -62.912     -85.524
  N      -26.589     -61.991     -83.839
  C      -26.304     -62.072     -82.517
  C      -26.710     -63.031     -81.620
  C      -27.590     -64.072     -82.098
  O      -28.107     -64.935     -81.393
  N      -26.284     -62.753     -80.347
  C      -25.653     -61.602     -80.463
  N      -25.674     -61.131     -81.754
  O      -23.516     -57.658     -76.299
  O      -24.274     -60.044     -76.395
  H      -26.942     -58.532     -83.652
  H      -24.948     -59.593     -75.849
  H      -28.598     -64.567     -83.797
  H      -25.199     -61.057     -79.645
  H      -25.027     -59.867     -83.243
  H      -27.159     -59.035     -81.448
  H      -28.614     -63.518     -85.835
  H      -25.769     -58.279     -79.836
  H      -27.672     -62.096     -86.095
  H      -23.454     -57.593     -81.704
  H      -22.283     -58.700     -79.701
  H      -23.091     -57.188     -79.311
  P      -26.985     -55.896     -79.774
  C      -27.627     -54.408     -81.754
  O      -28.106     -55.220     -80.696
  O      -26.287     -54.633     -79.078
  O      -27.508     -56.837     -78.737
  H      -26.753     -54.415     -78.249
  H      -28.441     -53.773     -82.112
  H      -27.285     -55.044     -82.576
  H      -26.802     -53.774     -81.418
  H      -20.417     -60.635     -76.316
  H      -22.011     -61.060     -75.742
  H      -21.273     -59.558     -75.238

 3  4  5  6  7  8  9  10  11  12  23  26  30  31 0
 6-311+G(2d,p)
 ****
 33  35  36  37  38 0
 6-311+G(2d,p)
 ****
 1  2  13  14  15  16  17  18  19  20  21  22  24  25 0
 3-21G
 ****
 27  28  29  32  34  39  40  41  42  43  44  45  46  47  48  49 0
 3-21G
 ****


