%nproc=1
%NoSave
%Mem=1900MB
#P OB98/GEN NMR

erre ene a

0 1
  C       -7.453    -166.796    -512.659
  O       -7.288    -165.661    -513.508
  P       -7.075    -164.244    -512.774
  C       -8.647    -162.463    -511.733
  O       -8.512    -163.527    -512.672
  C       -9.923    -161.647    -511.999
  O       -9.838    -160.941    -513.272
  C      -11.204    -162.489    -512.031
  O      -12.258    -161.685    -511.482
  C      -11.445    -162.668    -513.524
  O      -12.794    -163.054    -513.796
  C      -11.038    -161.287    -514.019
  N      -13.092    -161.979    -518.582
  C      -13.615    -162.219    -517.332
  N      -14.895    -162.656    -517.278
  N      -12.944    -162.033    -516.218
  C      -11.696    -161.547    -516.422
  C      -11.064    -161.259    -517.619
  C      -11.807    -161.501    -518.838
  O      -11.396    -161.302    -519.974
  N       -9.801    -160.766    -517.412
  C       -9.641    -160.815    -516.105
  N      -10.784    -161.241    -515.448
  O       -6.296    -163.377    -513.873
  O       -6.316    -164.349    -511.491
  H      -13.356    -162.258    -513.695
  H       -5.339    -163.356    -513.660
  H      -13.646    -162.144    -519.404
  H       -8.751    -160.550    -515.567
  H      -11.794    -160.527    -513.818
  H      -10.787    -163.450    -513.918
  H      -15.479    -162.766    -518.092
  H      -11.134    -163.447    -511.491
  H      -15.321    -162.802    -516.371
  H      -10.008    -160.881    -511.209
  H       -7.780    -161.805    -511.806
  H       -8.646    -162.882    -510.718
  P      -12.881    -162.125    -510.070
  C      -15.004    -163.354    -509.256
  O      -14.223    -162.928    -510.359
  O      -13.399    -160.734    -509.452
  O      -11.904    -162.786    -509.135
  H      -13.222    -160.717    -508.494
  H      -16.053    -163.447    -509.577
  H      -14.950    -162.646    -508.429
  H      -14.662    -164.333    -508.925
  H       -7.585    -167.673    -513.258
  H       -8.313    -166.655    -512.038
  H       -6.584    -166.911    -512.045

 3  4  5  6  7  8  9  10  11  12  23  26  30  31 0
 6-311+G(2d,p)
 ****
 33  35  36  37  38 0
 6-311+G(2d,p)
 ****
 1  2  13  14  15  16  17  18  19  20  21  22  24  25 0
 3-21G
 ****
 27  28  29  32  34  39  40  41  42  43  44  45  46  47  48  49 0
 3-21G
 ****


