%nproc=1
%NoSave
%Mem=1900MB
#P OB98/GEN NMR

erre ene a

0 1
  C      134.470    -233.883     230.055
  O      133.473    -234.864     229.844
  H      134.009    -232.895     229.987
  H      135.249    -233.957     229.291
  H      134.913    -233.994     231.048
  P      133.905    -236.405     229.890
  C      133.086    -237.074     227.534
  O      134.207    -236.823     228.370
  C      133.553    -237.412     226.122
  O      134.188    -236.269     225.517
  C      134.563    -238.556     226.061
  O      133.902    -239.807     226.134
  C      135.197    -238.289     224.705
  O      134.309    -238.732     223.660
  C      135.295    -236.754     224.706
  N      140.168    -235.726     223.762
  C      139.216    -236.330     222.963
  N      139.640    -236.759     221.753
  N      137.975    -236.514     223.322
  C      137.715    -236.098     224.583
  C      138.576    -235.502     225.476
  C      139.935    -235.251     225.047
  O      140.805    -234.702     225.719
  N      137.971    -235.279     226.686
  C      136.735    -235.704     226.510
  N      136.533    -236.224     225.256
  O      132.968    -237.337     230.597
  O      135.356    -236.383     230.563
  H      134.831    -238.738     222.838
  H      135.297    -236.504     231.528
  H      141.115    -235.629     223.435
  H      135.950    -235.656     227.256
  H      135.179    -236.330     223.703
  H      136.145    -238.805     224.567
  H      140.622    -236.898     221.550
  H      135.337    -238.456     226.831
  H      138.974    -237.249     221.172
  H      132.664    -237.642     225.522
  H      132.470    -236.169     227.529
  H      132.492    -237.903     227.933
  P      134.721    -241.166     226.377
  C      134.225    -241.972     223.973
  O      135.221    -241.616     224.923
  O      133.983    -242.216     227.135
  O      136.077    -240.696     227.078
  H      136.016    -240.647     228.064
  H      134.694    -242.250     223.052
  H      133.577    -241.137     223.806
  H      133.655    -242.797     224.346

 6  7  8  9  10  11  12  13  14  15  26  29  33  34 0
 6-311+G(2d,p)
 ****
 36  38  39  40  41 0
 6-311+G(2d,p)
 ****
 1  2  3  4  5  16  17  18  19  20  21  22  23  24  25 0
 3-21G
 ****
 27  28  30  31  32  35  37  42  43  44  45  46  47 0
 3-21G
 ****
 48  49 0
 3-21G
 ****


