%nproc=1
%NoSave
%Mem=1900MB
#P OB98/GEN NMR

erre ene a

0 1
  C     -360.278      59.224    -316.211
  O     -360.278      59.759    -317.532
  P     -359.407      61.076    -317.816
  C     -359.843      63.631    -317.806
  O     -360.375      62.339    -317.579
  C     -360.793      64.482    -318.647
  O     -360.839      63.945    -320.003
  C     -362.232      64.529    -318.133
  O     -362.761      65.823    -318.453
  C     -362.939      63.483    -318.981
  O     -364.347      63.676    -319.008
  C     -362.224      63.691    -320.310
  N     -364.156      61.914    -324.709
  C     -364.194      63.136    -324.139
  N     -363.657      63.530    -322.964
  C     -363.019      62.513    -322.366
  C     -362.928      61.203    -322.801
  C     -363.521      60.909    -324.044
  N     -363.477      59.669    -324.634
  N     -362.220      60.432    -321.901
  C     -361.893      61.264    -320.931
  N     -362.338      62.535    -321.176
  O     -359.226      61.039    -319.407
  O     -358.092      61.133    -317.118
  H     -364.532      64.539    -319.428
  H     -358.291      60.860    -319.626
  H     -364.724      63.896    -324.700
  H     -361.348      60.999    -320.034
  H     -362.614      64.561    -320.858
  H     -362.740      62.483    -318.575
  H     -362.328      64.335    -317.056
  H     -360.379      65.495    -318.725
  H     -358.893      63.530    -318.342
  H     -363.805      59.572    -325.580
  H     -362.854      58.970    -324.238
  H     -359.641      64.124    -316.848
  P     -363.754      66.491    -317.379
  C     -366.327      66.821    -317.490
  O     -365.223      65.957    -317.719
  O     -363.797      68.030    -317.831
  O     -363.308      66.343    -315.962
  H     -363.985      68.599    -317.064
  H     -367.090      66.610    -318.244
  H     -366.034      67.873    -317.554
  H     -366.742      66.617    -316.500
  H     -360.899      58.353    -316.179
  H     -360.656      59.957    -315.529
  H     -359.279      58.960    -315.933

 3  4  5  6  7  8  9  10  11  12  22  25  29  30  31  32 0
 6-311+G(2d,p)
 ****
 33  36  37 0
 6-311+G(2d,p)
 ****
 1  2  13  14  15  16  17  18  19  20  21  23  24  26 0
 3-21G
 ****
 27  28  34  35  38  39  40  41  42  43  44  45  46  47  48 0
 3-21G
 ****


