%nproc=1
%NoSave
%Mem=1900MB
#P OB98/GEN NMR

erre ene a

0 1
  C      -44.253    -121.978    -151.186
  O      -43.207    -122.881    -151.485
  H      -44.929    -121.926    -152.043
  H      -43.845    -120.981    -150.999
  H      -44.814    -122.320    -150.311
  P      -42.195    -123.235    -150.297
  C      -40.809    -124.622    -152.045
  O      -40.808    -123.687    -150.972
  C      -40.178    -123.989    -153.286
  O      -41.062    -123.020    -153.884
  C      -38.912    -123.200    -152.997
  O      -37.815    -124.020    -152.671
  C      -38.754    -122.449    -154.312
  O      -38.184    -123.290    -155.323
  C      -40.226    -122.109    -154.648
  N      -40.556    -120.715    -154.373
  C      -39.845    -119.763    -155.112
  O      -39.007    -120.119    -155.941
  N      -40.080    -118.432    -154.869
  C      -40.964    -118.083    -153.988
  N      -41.141    -116.749    -153.787
  C      -41.752    -119.052    -153.203
  C      -41.497    -120.339    -153.444
  O      -42.781    -124.615    -149.738
  O      -42.027    -122.169    -149.263
  H      -38.249    -122.793    -156.163
  H      -42.900    -125.294    -150.424
  H      -42.486    -118.714    -152.486
  H      -42.032    -121.118    -152.911
  H      -40.434    -122.302    -155.709
  H      -38.097    -121.581    -154.212
  H      -39.100    -122.458    -152.209
  H      -39.996    -124.787    -154.017
  H      -40.566    -116.112    -154.327
  H      -41.824    -124.966    -152.262
  H      -41.775    -116.361    -153.105
  H      -40.225    -125.490    -151.726
  P      -36.375    -123.378    -152.372
  C      -35.521    -125.806    -152.280
  O      -35.295    -124.493    -152.782
  O      -36.202    -122.819    -151.001
  O      -36.208    -122.297    -153.543
  H      -36.235    -122.664    -154.444
  H      -34.741    -126.456    -152.618
  H      -36.464    -126.166    -152.635
  H      -35.528    -125.783    -151.210

 6  7  8  9  10  11  12  13  14  15  16  26  30  31  32  33  35 0
 6-311+G(2d,p)
 ****
 37  38 0
 6-311+G(2d,p)
 ****
 1  2  3  4  5  17  18  19  20  21  22  23  24  25 0
 3-21G
 ****
 27  28  29  34  36  39  40  41  42  43  44  45  46 0
 3-21G
 ****


