%nproc=1
%NoSave
%Mem=1900MB
#P OB98/GEN NMR

erre ene a

0 1
  C      -37.921    -289.874     172.810
  O      -36.706    -289.242     172.448
  P      -35.888    -288.475     173.598
  C      -33.705    -287.033     173.313
  O      -34.428    -288.212     172.993
  C      -32.220    -287.358     173.502
  O      -32.038    -288.139     174.701
  C      -31.607    -288.186     172.382
  O      -31.331    -287.401     171.232
  C      -30.368    -288.749     173.075
  O      -29.317    -287.769     173.099
  C      -30.895    -288.998     174.503
  N      -31.237    -290.397     174.758
  C      -30.169    -291.277     174.886
  O      -28.990    -290.925     174.796
  N      -30.498    -292.590     175.104
  C      -31.759    -293.107     175.139
  O      -31.997    -294.298     175.294
  C      -32.849    -292.133     174.966
  C      -32.544    -290.845     174.785
  O      -35.685    -289.665     174.650
  O      -36.599    -287.276     174.125
  H      -35.682    -290.535     174.217
  H      -29.651    -287.020     173.633
  H      -29.736    -293.244     175.221
  H      -33.866    -292.507     174.979
  H      -33.332    -290.116     174.644
  H      -30.146    -288.687     175.244
  H      -29.974    -289.641     172.578
  H      -32.280    -289.007     172.112
  H      -31.676    -286.413     173.628
  H      -34.108    -286.607     174.235
  H      -33.834    -286.305     172.504
  P      -30.490    -288.111     170.059
  C      -30.604    -288.014     167.449
  O      -31.212    -287.715     168.683
  O      -30.879    -289.648     170.282
  O      -29.024    -287.830     170.118
  H      -31.825    -289.770     170.477
  H      -31.371    -288.003     166.668
  H      -30.130    -289.001     167.464
  H      -29.852    -287.254     167.217
  H      -38.351    -290.340     171.948
  H      -38.601    -289.144     173.197
  H      -37.729    -290.615     173.558

 3  4  5  6  7  8  9  10  11  12  13  24  28  29  30  31  32 0
 6-311+G(2d,p)
 ****
 33  34 0
 6-311+G(2d,p)
 ****
 1  2  14  15  16  17  18  19  20  21  22  23  25  26  27 0
 3-21G
 ****
 35  36  37  38  39  40  41  42  43  44  45 0
 3-21G
 ****


