%nproc=1
%NoSave
%Mem=1900MB
#P OB98/GEN NMR

erre ene a

0 1
  C       35.972    -560.307     -41.706
  O       34.780    -559.591     -41.339
  P       34.497    -558.181     -42.052
  C       32.610    -559.016     -43.639
  O       33.919    -558.474     -43.517
  C       31.890    -558.414     -44.848
  O       32.583    -558.707     -46.084
  C       30.467    -558.919     -45.022
  O       29.546    -558.216     -44.194
  C       30.215    -558.568     -46.483
  O       29.882    -557.170     -46.603
  C       31.578    -558.846     -47.125
  N       31.790    -561.434     -51.469
  C       31.716    -560.077     -51.249
  N       31.707    -559.284     -52.346
  N       31.660    -559.529     -50.056
  C       31.701    -560.440     -49.056
  C       31.769    -561.816     -49.151
  C       31.818    -562.399     -50.464
  O       31.866    -563.600     -50.733
  N       31.780    -562.398     -47.913
  C       31.737    -561.380     -47.064
  N       31.671    -560.174     -47.712
  O       35.974    -557.634     -42.361
  O       33.718    -557.215     -41.222
  H       29.030    -557.041     -46.145
  H       35.968    -556.661     -42.375
  H       31.828    -561.802     -52.408
  H       31.755    -561.474     -45.988
  H       31.830    -558.126     -47.920
  H       29.375    -559.131     -46.911
  H       31.796    -559.620     -53.289
  H       30.411    -560.002     -44.884
  H       31.687    -558.276     -52.206
  H       31.869    -557.316     -44.718
  H       32.035    -558.822     -42.728
  H       32.684    -560.104     -43.723
  P       28.621    -559.080     -43.207
  C       30.135    -559.518     -41.132
  O       29.625    -560.002     -42.368
  O       27.894    -560.102     -44.196
  O       27.648    -558.290     -42.412
  H       27.007    -560.329     -43.856
  H       30.662    -560.335     -40.625
  H       29.319    -559.168     -40.492
  H       30.842    -558.702     -41.321
  H       36.024    -561.221     -41.152
  H       36.830    -559.707     -41.486
  H       35.949    -560.525     -42.753

 3  4  5  6  7  8  9  10  11  12  23  26  30  31 0
 6-311+G(2d,p)
 ****
 33  35  36  37  38 0
 6-311+G(2d,p)
 ****
 1  2  13  14  15  16  17  18  19  20  21  22  24  25 0
 3-21G
 ****
 27  28  29  32  34  39  40  41  42  43  44  45  46  47  48  49 0
 3-21G
 ****


