%nproc=1
%NoSave
%Mem=1900MB
#P OB98/GEN NMR

erre ene a

0 1
  C      311.427     913.313    -775.688
  O      312.410     912.857    -774.734
  P      313.798     913.636    -774.708
  C      313.205     914.282    -772.247
  O      313.752     914.706    -773.488
  C      313.734     915.169    -771.119
  O      315.155     914.980    -770.896
  C      313.587     916.665    -771.393
  O      312.239     917.083    -771.239
  C      314.556     917.248    -770.379
  O      313.956     917.281    -769.072
  C      315.693     916.206    -770.398
  N      320.772     915.821    -771.075
  C      319.936     915.301    -770.152
  N      318.598     915.448    -770.027
  C      318.123     916.233    -771.025
  C      318.845     916.823    -772.043
  C      320.242     916.604    -772.043
  N      321.088     917.156    -772.987
  N      318.005     917.550    -772.866
  C      316.808     917.419    -772.344
  N      316.824     916.618    -771.234
  O      313.748     914.567    -776.009
  O      314.995     912.749    -774.718
  H      313.748     916.354    -768.829
  H      314.358     914.221    -776.692
  H      320.413     914.678    -769.400
  H      315.910     917.887    -772.722
  H      316.104     916.017    -769.380
  H      314.885     918.275    -770.634
  H      313.921     916.888    -772.426
  H      313.205     914.909    -770.193
  H      313.468     913.238    -772.048
  H      322.073     917.004    -772.887
  H      320.697     917.803    -773.670
  H      312.120     914.321    -772.304
  P      311.795     918.451    -771.956
  C      309.621     917.378    -772.795
  O      310.842     917.972    -773.162
  O      313.142     918.883    -772.704
  O      311.207     919.474    -771.037
  H      313.549     918.121    -773.183
  H      309.061     917.125    -773.709
  H      309.026     918.079    -772.196
  H      309.802     916.448    -772.235
  H      310.545     912.712    -775.606
  H      311.825     913.230    -776.678
  H      311.182     914.335    -775.487

 3  4  5  6  7  8  9  10  11  12  22  25  29  30  31  32 0
 6-311+G(2d,p)
 ****
 33  36  37 0
 6-311+G(2d,p)
 ****
 1  2  13  14  15  16  17  18  19  20  21  23  24  26 0
 3-21G
 ****
 27  28  34  35  38  39  40  41  42  43  44  45  46  47  48 0
 3-21G
 ****


