%nproc=1
%NoSave
%Mem=1900MB
#P OB98/GEN NMR

erre ene a

0 1
  C     -269.365      43.263     -59.916
  O     -268.951      44.314     -59.064
  H     -269.226      43.571     -60.952
  H     -270.426      43.052     -59.749
  H     -268.770      42.360     -59.736
  P     -268.755      43.958     -57.511
  C     -266.383      45.018     -57.437
  O     -267.710      45.031     -56.928
  C     -265.400      45.454     -56.354
  O     -265.391      46.888     -56.225
  C     -265.701      44.893     -54.968
  O     -265.186      43.576     -54.804
  C     -264.950      45.883     -54.093
  O     -263.535      45.585     -54.128
  C     -265.219      47.214     -54.817
  N     -266.978      50.649     -51.520
  C     -265.708      50.124     -51.656
  N     -264.773      50.572     -50.788
  N     -265.379      49.236     -52.563
  C     -266.420      48.861     -53.348
  C     -267.729      49.306     -53.300
  C     -268.067      50.298     -52.307
  O     -269.179      50.802     -52.148
  N     -268.500      48.698     -54.255
  C     -267.669      47.872     -54.862
  N     -266.395      47.931     -54.344
  O     -267.913      42.596     -57.563
  O     -270.020      43.786     -56.733
  H     -263.423      44.685     -53.772
  H     -268.515      41.848     -57.389
  H     -267.182      51.322     -50.798
  H     -267.935      47.218     -55.680
  H     -264.369      47.910     -54.741
  H     -265.257      45.845     -53.048
  H     -264.963      51.240     -50.053
  H     -266.777      44.940     -54.735
  H     -263.833      50.204     -50.873
  H     -264.393      45.153     -56.679
  H     -266.321      45.706     -58.284
  H     -266.146      44.006     -57.778
  P     -266.113      42.483     -54.082
  C     -265.830      40.842     -56.070
  O     -265.690      41.047     -54.674
  O     -267.549      42.749     -54.738
  O     -266.167      42.577     -52.594
  H     -268.160      43.120     -54.069
  H     -265.513      39.851     -56.318
  H     -265.227      41.552     -56.597
  H     -266.855      40.969     -56.348

 6  7  8  9  10  11  12  13  14  15  26  29  33  34 0
 6-311+G(2d,p)
 ****
 36  38  39  40  41 0
 6-311+G(2d,p)
 ****
 1  2  3  4  5  16  17  18  19  20  21  22  23  24  25 0
 3-21G
 ****
 27  28  30  31  32  35  37  42  43  44  45  46  47 0
 3-21G
 ****
 48  49 0
 3-21G
 ****


