%nproc=1
%NoSave
%Mem=1900MB
#P OB98/GEN NMR

erre ene a

0 1
  C     -936.334    1227.040      95.166
  O     -937.241    1227.143      94.092
  H     -935.342    1227.318      94.812
  H     -936.301    1226.004      95.532
  H     -936.628    1227.705      95.980
  P     -938.777    1226.776      94.417
  C     -940.172    1228.287      92.794
  O     -939.584    1227.020      93.052
  C     -940.054    1228.672      91.314
  O     -938.675    1229.052      91.042
  C     -940.384    1227.498      90.345
  O     -940.895    1228.070      89.141
  C     -939.011    1226.923      90.111
  O     -939.032    1226.035      89.004
  C     -938.192    1228.187      89.978
  N     -933.769    1228.040      87.440
  C     -935.009    1228.330      87.040
  N     -936.143    1228.365      87.774
  C     -935.888    1228.075      89.061
  C     -934.663    1227.774      89.625
  C     -933.549    1227.756      88.761
  N     -932.279    1227.443      89.154
  N     -934.789    1227.512      90.986
  C     -936.076    1227.687      91.231
  N     -936.769    1228.010      90.108
  O     -939.256    1227.990      95.347
  O     -939.004    1225.451      95.054
  H     -939.419    1226.450      88.217
  H     -939.170    1227.741      96.280
  H     -935.130    1228.569      85.979
  H     -936.544    1227.573      92.224
  H     -938.390    1228.705      89.029
  H     -938.683    1226.321      90.970
  H     -941.122    1226.788      90.771
  H     -940.691    1229.545      91.129
  H     -939.657    1229.049      93.416
  H     -941.232    1228.268      93.087
  H     -931.529    1227.439      88.471
  H     -932.108    1227.217      90.127
  P     -942.235    1227.444      88.487
  C     -943.783    1229.563      88.519
  O     -943.044    1228.609      87.751
  O     -943.149    1227.193      89.777
  O     -942.051    1226.200      87.702
  H     -943.749    1226.447      89.606
  H     -944.256    1230.261      87.861
  H     -943.118    1230.085      89.175
  H     -944.528    1229.056      89.096

 6  7  8  9  10  11  12  13  14  15  25  28  32  33  34  35 0
 6-311+G(2d,p)
 ****
 36  37  40 0
 6-311+G(2d,p)
 ****
 1  2  3  4  5  16  17  18  19  20  21  22  23  24 0
 3-21G
 ****
 26  27  29  30  31  38  39 41  42  43  44  45  46  47  48 0
 3-21G
 ****


