%nproc=1
%NoSave
%Mem=1900MB
#P OB98/GEN NMR

erre ene a

0 1
  C     -122.671     492.332      78.553
  O     -122.397     491.654      77.345
  H     -122.966     491.596      79.307
  H     -123.491     493.043      78.423
  H     -121.777     492.852      78.909
  P     -122.053     492.528      76.043
  C     -124.375     492.040      75.002
  O     -122.967     491.890      74.886
  C     -125.082     491.311      73.859
  O     -124.954     492.045      72.622
  C     -124.530     489.926      73.545
  O     -124.892     488.943      74.503
  C     -125.174     489.686      72.191
  O     -126.563     489.346      72.372
  C     -125.025     491.079      71.535
  N     -123.842     491.185      70.681
  C     -123.928     490.587      69.416
  O     -124.954     490.005      69.066
  N     -122.829     490.626      68.592
  C     -121.737     491.195      68.997
  N     -120.662     491.165      68.159
  C     -121.611     491.854      70.313
  C     -122.687     491.809      71.096
  O     -120.602     492.670      75.707
  O     -122.788     493.927      76.298
  H     -126.947     489.240      71.484
  H     -122.594     494.511      75.524
  H     -120.676     492.310      70.605
  H     -122.666     492.254      72.086
  H     -125.913     491.328      70.941
  H     -124.713     488.869      71.628
  H     -123.443     489.958      73.415
  H     -126.152     491.274      74.104
  H     -120.775     490.670      67.284
  H     -124.606     493.110      74.988
  H     -119.721     491.333      68.501
  H     -124.724     491.613      75.948
  P     -123.718     488.266      75.369
  C     -124.147     485.748      74.847
  O     -124.240     486.808      75.784
  O     -123.765     489.094      76.736
  O     -122.360     488.274      74.737
  H     -123.130     489.834      76.724
  H     -124.537     484.852      75.283
  H     -123.122     485.598      74.579
  H     -124.712     485.994      73.972

 6  7  8  9  10  11  12  13  14  15  16  26  30  31  32  33  35 0
 6-311+G(2d,p)
 ****
 37  38 0
 6-311+G(2d,p)
 ****
 1  2  3  4  5  17  18  19  20  21  22  23  24  25 0
 3-21G
 ****
 27  28  29  34  36  39  40  41  42  43  44  45  46 0
 3-21G
 ****


