%nproc=1
%NoSave
%Mem=1900MB
#P OB98/GEN NMR

erre ene a

0 1
  C     -434.515      -1.335      47.834
  O     -433.433      -0.540      48.270
  P     -433.663       0.729      49.220
  C     -432.993      -0.648      51.295
  O     -434.000       0.155      50.684
  C     -432.845      -0.282      52.775
  O     -431.750      -1.068      53.345
  C     -432.520       1.211      52.992
  O     -433.389       1.880      53.908
  C     -431.050       1.178      53.387
  O     -430.621       2.333      54.083
  C     -430.959      -0.153      54.132
  N     -429.582      -0.613      54.295
  C     -429.282      -1.318      55.459
  O     -430.096      -1.591      56.333
  N     -427.971      -1.668      55.623
  C     -426.930      -1.293      54.826
  O     -425.767      -1.561      55.090
  C     -427.305      -0.514      53.633
  C     -428.588      -0.230      53.411
  O     -434.639       1.736      48.717
  O     -432.180       1.301      49.423
  H     -430.926       3.114      53.581
  H     -431.553       0.678      49.827
  H     -427.735      -2.183      56.464
  H     -426.502      -0.191      52.987
  H     -428.894       0.345      52.545
  H     -431.418      -0.095      55.121
  H     -430.460       1.125      52.465
  H     -432.632       1.777      52.061
  H     -433.770      -0.561      53.285
  H     -432.043      -0.473      50.784
  H     -433.242      -1.711      51.173
  P     -433.269       3.417      54.335
  C     -434.337       4.096      52.058
  O     -433.304       4.308      53.002
  O     -432.154       3.733      55.275
  O     -434.688       3.724      55.015
  H     -434.582       4.423      55.685
  H     -433.964       4.361      51.068
  H     -435.184       4.737      52.302
  H     -434.662       3.048      52.042
  H     -434.149      -2.126      47.213
  H     -435.199      -0.731      47.276
  H     -435.017      -1.751      48.683

 3  4  5  6  7  8  9  10  11  12  13  23  28  29  30  31  32 0
 6-311+G(2d,p)
 ****
 33  34 0
 6-311+G(2d,p)
 ****
 1  2  14  15  16  17  18  19  20  21  22  24  25  26  27 0
 3-21G
 ****
 35  36  37  38  39  40  41  42  43  44  45 0
 3-21G
 ****


