%nproc=1
%NoSave
%Mem=1900MB
#P OB98/GEN NMR

erre ene a

0 1
  C     -926.574    -971.142    -895.307
  O     -926.788    -969.738    -895.237
  H     -927.112    -971.624    -894.467
  H     -925.508    -971.351    -895.187
  H     -926.938    -971.560    -896.247
  P     -926.434    -968.889    -896.547
  C     -928.757    -967.732    -896.537
  O     -927.355    -967.568    -896.497
  C     -929.473    -966.469    -896.027
  O     -929.457    -966.491    -894.557
  C     -928.795    -965.157    -896.477
  O     -929.816    -964.171    -896.707
  C     -928.009    -964.726    -895.237
  O     -927.744    -963.321    -895.217
  C     -928.966    -965.203    -894.137
  N     -927.873    -962.526    -890.017
  C     -928.752    -962.251    -891.057
  N     -929.387    -961.064    -891.037
  N     -928.963    -963.098    -892.047
  C     -928.274    -964.245    -891.937
  C     -927.389    -964.639    -890.947
  C     -927.139    -963.700    -889.877
  O     -926.375    -963.882    -888.927
  N     -926.850    -965.869    -891.227
  C     -927.404    -966.225    -892.377
  N     -928.266    -965.280    -892.847
  O     -927.092    -969.756    -897.727
  O     -924.978    -968.659    -896.777
  H     -927.118    -963.144    -894.487
  H     -926.427    -970.359    -898.107
  H     -927.744    -961.845    -889.297
  H     -927.203    -967.138    -892.917
  H     -929.807    -964.533    -893.997
  H     -927.054    -965.263    -895.197
  H     -929.297    -960.390    -890.297
  H     -928.167    -965.244    -897.357
  H     -930.057    -960.874    -891.777
  H     -930.516    -966.500    -896.337
  H     -929.041    -968.580    -895.887
  H     -929.080    -967.950    -897.567
  P     -929.501    -963.003    -897.767
  C     -931.715    -963.251    -899.117
  O     -930.906    -962.411    -898.297
  O     -928.931    -963.793    -899.037
  O     -928.530    -961.982    -897.277
  H     -928.252    -963.267    -899.477
  H     -932.608    -962.729    -899.390
  H     -931.972    -964.138    -898.576
  H     -931.173    -963.517    -900.000

 6  7  8  9  10  11  12  13  14  15  26  29  33  34 0
 6-311+G(2d,p)
 ****
 36  38  39  40  41 0
 6-311+G(2d,p)
 ****
 1  2  3  4  5  16  17  18  19  20  21  22  23  24  25 0
 3-21G
 ****
 27  28  30  31  32  35  37  42  43  44  45  46  47 0
 3-21G
 ****
 48  49 0
 3-21G
 ****


