%nproc=1
%NoSave
%Mem=1900MB
#P OB98/GEN NMR

erre ene a

0 1
  C      -63.844     -19.614     -24.465
  O      -62.453     -19.390     -24.725
  P      -61.602     -20.676     -25.187
  C      -61.745     -19.727     -27.602
  O      -60.931     -20.342     -26.610
  C      -60.991     -19.537     -28.921
  O      -59.873     -18.639     -28.705
  C      -60.421     -20.825     -29.527
  O      -60.531     -20.747     -30.956
  C      -58.944     -20.752     -29.182
  O      -58.146     -21.543     -30.058
  C      -58.710     -19.247     -29.290
  N      -53.672     -19.627     -29.055
  C      -54.553     -20.142     -29.985
  N      -54.016     -20.882     -30.981
  N      -55.846     -19.949     -29.946
  C      -56.238     -19.163     -28.913
  C      -55.461     -18.586     -27.933
  C      -54.038     -18.845     -27.968
  O      -53.211     -18.462     -27.143
  N      -56.224     -17.857     -27.053
  C      -57.457     -17.999     -27.495
  N      -57.518     -18.789     -28.616
  O      -62.732     -21.755     -25.533
  O      -60.664     -21.183     -24.144
  H      -57.214     -21.313     -29.882
  H      -62.589     -22.566     -25.007
  H      -52.689     -19.825     -29.122
  H      -58.339     -17.578     -27.034
  H      -58.652     -18.927     -30.339
  H      -58.791     -21.113     -28.158
  H      -53.025     -21.015     -31.108
  H      -60.893     -21.744     -29.165
  H      -54.641     -21.228     -31.698
  H      -61.666     -19.048     -29.633
  H      -62.083     -18.753     -27.239
  H      -62.632     -20.350     -27.762
  P      -61.490     -21.827     -31.657
  C      -63.636     -20.600     -30.845
  O      -62.872     -21.067     -31.939
  O      -61.849     -22.833     -30.464
  O      -60.875     -22.525     -32.824
  H      -62.052     -23.719     -30.818
  H      -63.082     -20.648     -29.903
  H      -64.538     -21.212     -30.755
  H      -63.927     -19.563     -31.031
  H      -64.304     -18.695     -24.168
  H      -63.949     -20.335     -23.681
  H      -64.318     -19.979     -25.352

 3  4  5  6  7  8  9  10  11  12  23  26  30  31  33  0
 6-311+G(2d,p)
 ****
 35  36  37  38 0
 6-311+G(2d,p)
 ****
 1  2  13  14  15  16  17  18  19  20  21  22  24  25  27  28  29 0
 3-21G
 ****
 32  34  39  40  41  42  43  44  45  46  47  48  49 0
 3-21G
 ****


