%nproc=1
%NoSave
%Mem=1900MB
#P OB98/GEN NMR

erre ene a

0 1
  C      -38.373     -66.051      18.632
  O      -39.294     -66.818      17.882
  H      -37.634     -65.625      17.949
  H      -37.860     -66.686      19.359
  H      -38.889     -65.237      19.147
  P      -40.476     -67.519      18.707
  C      -41.986     -66.760      20.692
  O      -41.080     -66.384      19.666
  C      -42.341     -65.548      21.561
  O      -41.106     -64.952      22.058
  C      -43.095     -64.441      20.808
  O      -43.925     -63.749      21.755
  C      -41.957     -63.535      20.369
  O      -42.442     -62.284      19.939
  C      -41.106     -63.570      21.636
  N      -38.177     -59.558      20.431
  C      -39.510     -59.675      20.612
  N      -40.217     -60.774      20.943
  C      -39.403     -61.830      21.114
  C      -38.025     -61.861      20.973
  C      -37.403     -60.654      20.609
  N      -36.047     -60.533      20.416
  N      -37.538     -63.131      21.225
  C      -38.604     -63.850      21.513
  N      -39.751     -63.109      21.450
  O      -39.698     -68.492      19.711
  O      -41.485     -68.252      17.888
  H      -43.099     -61.928      20.575
  H      -39.650     -69.390      19.333
  H      -40.086     -58.765      20.468
  H      -38.603     -64.904      21.762
  H      -41.551     -62.977      22.443
  H      -41.416     -63.970      19.524
  H      -43.714     -64.817      19.988
  H      -42.902     -65.889      22.438
  H      -41.513     -67.533      21.307
  H      -42.898     -67.165      20.243
  H      -35.681     -59.636      20.141
  H      -35.461     -61.347      20.528
  P      -45.385     -64.332      22.091
  C      -46.118     -66.767      22.707
  O      -45.215     -65.693      22.923
  O      -45.861     -64.878      20.659
  O      -46.367     -63.349      22.635
  H      -46.835     -64.849      20.608
  H      -45.856     -67.587      23.343
  H      -46.065     -67.077      21.684
  H      -47.114     -66.446      22.931

 6  7  8  9  10  11  12  13  14  15  25  28  32  33  34  35 0
 6-311+G(2d,p)
 ****
 36  37  40 0
 6-311+G(2d,p)
 ****
 1  2  3  4  5  16  17  18  19  20  21  22  23  24 0
 3-21G
 ****
 26  27  29  30  31  38  39 41  42  43  44  45  46  47  48 0
 3-21G
 ****


