%nproc=1
%NoSave
%Mem=1900MB
#P OB98/GEN NMR

erre ene a

0 1
  C       90.680     -45.086     161.445
  O       90.065     -43.867     161.866
  P       91.008     -42.794     162.597
  C       91.203     -41.085     160.659
  O       90.720     -41.346     161.969
  C       90.343     -40.044     159.930
  O       89.120     -40.644     159.426
  C       89.938     -38.862     160.813
  O       89.881     -37.702     159.976
  C       88.527     -39.220     161.240
  O       87.804     -38.066     161.660
  C       88.006     -39.895     159.960
  N       86.841     -40.748     160.192
  C       85.704     -40.139     160.727
  O       85.731     -38.948     161.049
  N       84.579     -40.896     160.926
  C       84.603     -42.166     160.664
  N       83.455     -42.864     160.885
  C       85.799     -42.864     160.153
  C       86.868     -42.099     159.939
  O       92.471     -43.160     162.058
  O       90.945     -42.862     164.090
  H       87.813     -37.416     160.924
  H       93.093     -43.237     162.805
  H       85.779     -43.927     159.968
  H       87.791     -42.518     159.564
  H       87.725     -39.141     159.213
  H       88.553     -39.937     162.071
  H       90.621     -38.683     161.648
  H       90.909     -39.681     159.065
  H       82.652     -42.348     161.228
  H       91.215     -42.008     160.078
  H       83.362     -43.855     160.718
  H       92.246     -40.754     160.725
  P       90.842     -36.467     160.322
  C       92.978     -36.617     158.902
  O       91.636     -36.172     158.960
  O       91.980     -37.183     161.202
  O       90.263     -35.293     161.036
  H       92.603     -36.515     161.539
  H       93.354     -36.463     157.885
  H       93.038     -37.681     159.144
  H       93.594     -36.037     159.593
  H       89.949     -45.711     160.975
  H       91.088     -45.592     162.295
  H       91.463     -44.869     160.749

 3  4  5  6  7  8  9  10  11  12  13  21  23  27  28  29  30  32 0
 6-311+G(2d,p)
 ****
 34  35 0
 6-311+G(2d,p)
 ****
 1  2  14  15  16  17  18  19  20  22  24  25  26 0
 3-21G
 ****
 31  33  36  37  38  39  40  41  42  43  44  45  46 0
 3-21G
 ****


