%nproc=1
%NoSave
%Mem=1900MB
#P OB98/GEN NMR

erre ene a

0 1
  C     -365.957     -14.173      45.990
  O     -365.716     -13.647      44.699
  H     -365.768     -13.390      46.729
  H     -365.281     -15.009      46.180
  H     -366.996     -14.504      46.082
  P     -366.160     -14.564      43.462
  C     -368.359     -13.141      43.333
  O     -367.756     -14.427      43.316
  C     -369.492     -13.077      42.310
  O     -370.058     -11.755      42.256
  C     -369.054     -13.343      40.880
  O     -368.753     -14.702      40.646
  C     -370.279     -12.851      40.118
  O     -371.291     -13.862      40.034
  C     -370.756     -11.665      40.993
  N     -370.549     -10.392      40.331
  C     -371.325     -10.180      39.182
  O     -372.130     -11.035      38.815
  N     -371.139      -9.024      38.471
  C     -370.242      -8.168      38.849
  N     -370.086      -7.058      38.081
  C     -369.402      -8.357      40.049
  C     -369.605      -9.480      40.738
  O     -365.970     -16.043      44.043
  O     -365.418     -14.307      42.195
  H     -370.972     -14.520      39.382
  H     -366.376     -16.173      44.918
  H     -368.676      -7.606      40.333
  H     -369.034      -9.701      41.633
  H     -371.828     -11.765      41.219
  H     -370.029     -12.570      39.091
  H     -368.209     -12.696      40.618
  H     -370.275     -13.781      42.627
  H     -370.644      -6.997      37.235
  H     -367.615     -12.364      43.124
  H     -369.368      -6.366      38.233
  H     -368.745     -12.968      44.342
  P     -368.562     -15.266      39.158
  C     -366.109     -14.491      39.337
  O     -367.289     -14.507      38.536
  O     -369.779     -15.228      38.299
  O     -367.981     -16.739      39.404
  H     -367.143     -16.771      39.894
  H     -365.335     -13.961      38.822
  H     -365.791     -15.495      39.523
  H     -366.316     -14.004      40.267

 6  7  8  9  10  11  12  13  14  15  16  26  30  31  32  33  35 0
 6-311+G(2d,p)
 ****
 37  38 0
 6-311+G(2d,p)
 ****
 1  2  3  4  5  17  18  19  20  21  22  23  24  25 0
 3-21G
 ****
 27  28  29  34  36  39  40  41  42  43  44  45  46 0
 3-21G
 ****


