%nproc=1
%NoSave
%Mem=1900MB
#P OB98/GEN NMR

erre ene a

0 1
  C     -357.171     469.345     642.381
  O     -358.180     468.662     641.661
  P     -358.616     467.174     642.068
  C     -357.242     465.168     642.973
  O     -357.245     466.328     642.157
  C     -356.059     464.287     642.602
  O     -354.841     465.027     642.673
  C     -355.862     463.063     643.504
  O     -356.810     462.043     643.212
  C     -354.414     462.703     643.208
  O     -354.323     461.968     641.976
  C     -353.773     464.095     643.030
  N     -353.060     464.554     644.219
  C     -351.691     464.358     644.236
  O     -351.109     463.817     643.302
  N     -350.958     464.786     645.337
  C     -351.572     465.348     646.318
  N     -350.805     465.814     647.341
  C     -353.034     465.527     646.393
  C     -353.713     465.110     645.303
  O     -359.663     466.556     641.209
  O     -359.042     467.276     643.617
  H     -353.451     461.551     641.952
  H     -360.001     467.516     643.749
  H     -353.504     465.999     647.245
  H     -354.783     465.252     645.253
  H     -353.077     464.103     642.195
  H     -353.952     462.114     643.991
  H     -355.963     463.363     644.549
  H     -356.198     463.951     641.547
  H     -349.795     465.833     647.193
  H     -358.168     464.612     642.808
  H     -351.154     466.503     648.014
  H     -357.183     465.475     644.028
  P     -357.398     461.181     644.444
  C     -356.500     459.222     645.877
  O     -356.263     460.095     644.780
  O     -358.590     460.361     643.786
  O     -357.847     462.020     645.603
  H     -359.448     460.765     644.020
  H     -355.779     458.394     645.795
  H     -357.521     458.797     645.814
  H     -356.351     459.754     646.818
  H     -357.027     470.317     641.958
  H     -356.257     468.792     642.325
  H     -357.467     469.442     643.405

 3  4  5  6  7  8  9  10  11  12  13  23  27  28  29  30  32 0
 6-311+G(2d,p)
 ****
 34  35 0
 6-311+G(2d,p)
 ****
 1  2  14  15  16  17  18  19  20  21  22  24  25  26 0
 3-21G
 ****
 31  33  36  37  38  39  40  41  42  43  44  45  46 0
 3-21G
 ****


