%nproc=1
%NoSave
%Mem=1900MB
#P OB98/GEN NMR

erre ene a

0 1
  C      -83.389     -12.076     192.226
  O      -83.884     -11.060     191.376
  H      -82.339     -12.259     191.983
  H      -83.953     -13.001     192.081
  H      -83.462     -11.757     193.271
  P      -85.450     -10.721     191.500
  C      -87.535     -12.026     190.628
  O      -86.143     -11.774     190.501
  C      -88.120     -12.412     189.272
  O      -87.886     -11.369     188.299
  C      -87.520     -13.677     188.659
  O      -88.016     -14.873     189.236
  C      -87.976     -13.508     187.219
  O      -89.381     -13.815     187.122
  C      -87.714     -12.004     187.002
  N      -86.375     -11.727     186.466
  C      -86.274     -11.572     185.080
  O      -87.268     -11.670     184.360
  N      -85.034     -11.344     184.530
  C      -83.990     -11.256     185.295
  N      -82.791     -11.032     184.691
  C      -84.053     -11.400     186.761
  C      -85.262     -11.629     187.274
  O      -85.594      -9.337     190.707
  O      -86.011     -10.703     192.882
  H      -89.707     -13.370     186.317
  H      -86.551      -9.112     190.595
  H      -83.152     -11.333     187.356
  H      -85.385     -11.747     188.345
  H      -88.459     -11.569     186.322
  H      -87.458     -14.169     186.523
  H      -86.422     -13.656     188.687
  H      -89.209     -12.509     189.395
  H      -82.770     -10.998     183.682
  H      -88.018     -11.115     191.000
  H      -81.906     -11.098     185.182
  H      -87.708     -12.838     191.340
  P      -86.949     -16.030     189.563
  C      -85.072     -17.238     188.217
  O      -86.221     -16.396     188.181
  O      -87.869     -17.305     189.846
  O      -86.030     -15.733     190.711
  H      -87.471     -17.879     190.527
  H      -84.707     -17.386     187.222
  H      -85.336     -18.183     188.644
  H      -84.311     -16.778     188.812

 6  7  8  9  10  11  12  13  14  15  16  26  30  31  32  33  35 0
 6-311+G(2d,p)
 ****
 37  38 0
 6-311+G(2d,p)
 ****
 1  2  3  4  5  17  18  19  20  21  22  23  24  25 0
 3-21G
 ****
 27  28  29  34  36  39  40  41  42  43  44  45  46 0
 3-21G
 ****


