%nproc=1
%NoSave
%Mem=1900MB
#P OB98/GEN NMR

erre ene a

0 1
  C     -332.437      76.721      14.775
  O     -332.524      75.755      15.804
  H     -331.878      77.584      15.149
  H     -333.439      77.051      14.481
  H     -331.912      76.306      13.911
  P     -333.366      74.431      15.466
  C     -331.626      72.948      14.248
  O     -332.734      73.826      14.120
  C     -331.590      71.958      13.087
  O     -332.765      71.116      13.101
  C     -331.529      72.605      11.708
  O     -330.196      72.945      11.366
  C     -332.096      71.496      10.834
  O     -331.093      70.496      10.553
  C     -333.203      70.917      11.727
  N     -337.638      70.426       9.360
  C     -336.485      69.669       9.264
  N     -336.504      68.644       8.380
  N     -335.400      69.903       9.954
  C     -335.502      70.992      10.752
  C     -336.585      71.821      10.937
  C     -337.795      71.517      10.201
  O     -338.873      72.097      10.308
  N     -336.304      72.809      11.845
  C     -335.049      72.597      12.183
  N     -334.516      71.508      11.542
  O     -334.782      75.005      14.981
  O     -333.532      73.471      16.594
  H     -330.779      70.115      11.390
  H     -335.488      74.415      15.309
  H     -338.450      70.180       8.825
  H     -334.483      73.193      12.890
  H     -333.325      69.838      11.582
  H     -332.431      71.877       9.869
  H     -337.177      68.598       7.631
  H     -332.188      73.481      11.654
  H     -335.635      68.139       8.256
  H     -330.724      71.301      13.241
  H     -331.713      72.399      15.192
  H     -330.700      73.533      14.260
  P     -329.953      74.260      10.483
  C     -330.269      76.106      12.281
  O     -330.801      75.458      11.132
  O     -330.744      73.930       9.130
  O     -328.521      74.564      10.202
  H     -330.112      73.714       8.420
  H     -330.940      76.877      12.598
  H     -329.319      76.536      12.040
  H     -330.148      75.392      13.069

 6  7  8  9  10  11  12  13  14  15  26  29  33  34 0
 6-311+G(2d,p)
 ****
 36  38  39  40  41 0
 6-311+G(2d,p)
 ****
 1  2  3  4  5  16  17  18  19  20  21  22  23  24  25 0
 3-21G
 ****
 27  28  30  31  32  35  37  42  43  44  45  46  47 0
 3-21G
 ****
 48  49 0
 3-21G
 ****


