%nproc=1
%NoSave
%Mem=1900MB
#P OB98/GEN NMR

erre ene a

0 1
  C      -91.125      10.782       6.625
  O      -91.162      10.354       5.280
  H      -90.574      11.726       6.678
  H      -90.602      10.042       7.236
  H      -92.133      10.942       7.017
  P      -92.138       9.151       4.872
  C      -94.398      10.367       4.589
  O      -93.272       9.797       3.936
  C      -95.270      11.111       3.577
  O      -94.622      12.383       3.260
  C      -95.467      10.343       2.253
  O      -96.777      10.630       1.749
  C      -94.419      10.990       1.371
  O      -94.682      10.787       0.005
  C      -94.507      12.445       1.826
  N      -93.341      13.213       1.393
  C      -93.341      13.666       0.079
  O      -94.250      13.445      -0.719
  N      -92.214      14.328      -0.327
  C      -91.071      14.480       0.401
  O      -90.064      15.012      -0.035
  C      -91.109      13.932       1.769
  C      -92.227      13.340       2.199
  O      -92.658       8.321       5.998
  O      -91.288       8.289       3.823
  H      -95.484      11.281      -0.256
  H      -91.642       7.381       3.764
  H      -92.203      14.672      -1.276
  H      -90.216      14.022       2.373
  H      -92.285      12.910       3.194
  H      -95.415      12.921       1.440
  H      -93.432      10.566       1.588
  H      -95.335       9.265       2.360
  H      -96.234      11.354       4.041
  H      -94.035      11.065       5.353
  H      -94.978       9.577       5.076
  P      -97.720       9.485       1.137
  C      -98.850       8.526       3.233
  O      -99.035       9.289       2.045
  O      -97.006       8.210       0.816
  O      -98.299      10.132      -0.213
  H      -98.235       9.480      -0.936
  H      -99.778       8.456       3.760
  H      -98.122       9.004       3.854
  H      -98.510       7.544       2.977

 6  7  8  9  10  11  12  13  14  15  16  26  31  32  33  34  35 0
 6-311+G(2d,p)
 ****
 36  37 0
 6-311+G(2d,p)
 ****
 1  2  3  4  5  17  18  19  20  21  22  23  24  25 0
 3-21G
 ****
 27  28  29  30  38  39  40  41  42  43  44  45 0
 3-21G
 ****


