%nproc=1
%NoSave
%Mem=1900MB
#P OB98/GEN NMR

erre ene a

0 1
  C       -2.763       8.936      17.832
  O       -1.358       9.064      17.892
  H       -3.154       9.708      17.164
  H       -3.207       9.073      18.821
  H       -3.038       7.957      17.431
  P       -0.550       8.114      18.903
  C        0.118       5.614      18.774
  O       -0.741       6.637      18.296
  C       -0.273       4.270      18.166
  O       -1.548       3.824      18.671
  C       -0.437       4.276      16.650
  O        0.794       4.325      15.949
  C       -1.163       2.954      16.458
  O       -0.228       1.868      16.587
  C       -2.150       2.978      17.651
  N       -3.473       3.479      17.286
  C       -4.287       2.617      16.541
  O       -3.886       1.499      16.221
  N       -5.526       3.056      16.141
  C       -5.911       4.257      16.441
  N       -7.128       4.659      15.980
  C       -5.094       5.192      17.238
  C       -3.898       4.747      17.619
  O       -0.883       8.257      20.353
  O        0.990       8.401      18.573
  H       -0.015       1.786      17.534
  H        1.533       7.844      19.183
  H       -5.459       6.185      17.453
  H       -3.233       5.382      18.193
  H       -2.259       1.978      18.086
  H       -1.638       2.860      15.478
  H       -1.100       5.087      16.332
  H        0.474       3.532      18.487
  H       -7.641       4.008      15.402
  H        0.042       5.588      19.865
  H       -7.373       5.642      15.929
  H        1.154       5.831      18.495
  P        0.783       4.903      14.450
  C       -0.052       7.141      13.410
  O       -0.163       6.199      14.464
  O       -0.077       3.815      13.656
  O        2.127       5.134      13.835
  H        0.500       3.146      13.239
  H       -0.747       7.938      13.570
  H       -0.268       6.661      12.478
  H        0.943       7.535      13.387

 6  7  8  9  10  11  12  13  14  15  16  26  30  31  32  33  35 0
 6-311+G(2d,p)
 ****
 37  38 0
 6-311+G(2d,p)
 ****
 1  2  3  4  5  17  18  19  20  21  22  23  24  25 0
 3-21G
 ****
 27  28  29  34  36  39  40  41  42  43  44  45  46 0
 3-21G
 ****


