%nproc=1
%NoSave
%Mem=1900MB
#P OB98/GEN NMR

erre ene a

0 1
  C     -212.479     -38.969     -79.196
  O     -212.076     -37.871     -78.405
  H     -213.477     -39.281     -78.880
  H     -211.789     -39.804     -79.058
  H     -212.515     -38.686     -80.251
  P     -210.637     -37.229     -78.721
  C     -210.003     -37.946     -76.299
  O     -210.000     -36.913     -77.277
  C     -209.980     -37.345     -74.891
  O     -208.660     -36.813     -74.622
  C     -210.990     -36.213     -74.698
  O     -211.631     -36.360     -73.430
  C     -210.145     -34.953     -74.729
  O     -210.745     -33.880     -74.006
  C     -208.806     -35.451     -74.176
  N     -207.689     -34.624     -74.625
  C     -207.450     -33.446     -73.911
  O     -208.173     -33.141     -72.960
  N     -206.438     -32.616     -74.318
  C     -205.760     -32.903     -75.385
  N     -204.783     -32.031     -75.752
  C     -206.008     -34.109     -76.197
  C     -206.972     -34.920     -75.762
  O     -211.008     -35.784     -79.294
  O     -209.764     -38.036     -79.622
  H     -211.579     -33.634     -74.466
  H     -210.230     -35.358     -79.728
  H     -205.427     -34.299     -77.088
  H     -207.226     -35.828     -76.298
  H     -208.819     -35.455     -73.077
  H     -210.020     -34.625     -75.769
  H     -211.753     -36.186     -75.475
  H     -210.145     -38.152     -74.167
  H     -204.650     -31.209     -75.175
  H     -209.120     -38.575     -76.444
  H     -204.217     -32.139     -76.579
  H     -210.904     -38.554     -76.422
  P     -212.996     -37.207     -73.426
  C     -214.499     -35.210     -72.740
  O     -214.003     -36.494     -72.398
  O     -212.590     -38.567     -72.689
  O     -213.555     -37.441     -74.790
  H     -212.422     -39.271     -73.342
  H     -215.153     -34.863     -71.967
  H     -215.037     -35.270     -73.663
  H     -213.681     -34.529     -72.848

 6  7  8  9  10  11  12  13  14  15  16  26  30  31  32  33  35 0
 6-311+G(2d,p)
 ****
 37  38 0
 6-311+G(2d,p)
 ****
 1  2  3  4  5  17  18  19  20  21  22  23  24  25 0
 3-21G
 ****
 27  28  29  34  36  39  40  41  42  43  44  45  46 0
 3-21G
 ****


