%nproc=1
%NoSave
%Mem=1900MB
#P OB98/GEN NMR

erre ene a

0 1
  C      160.925     250.262      33.255
  O      160.403     251.343      32.504
  P      158.840     251.639      32.367
  C      159.528     254.098      31.861
  O      158.661     253.016      31.547
  C      158.936     255.465      31.507
  O      157.655     255.615      32.165
  C      159.830     256.584      32.046
  O      160.958     257.011      31.306
  C      158.867     257.697      32.452
  O      158.759     258.721      31.459
  C      157.534     256.972      32.627
  N      153.477     257.316      35.647
  C      153.532     257.091      34.288
  N      152.349     257.157      33.631
  N      154.641     256.847      33.632
  C      155.745     256.914      34.416
  C      155.816     257.114      35.769
  C      154.579     257.340      36.485
  O      154.498     257.624      37.677
  N      157.116     257.189      36.211
  C      157.837     257.075      35.114
  N      157.046     256.947      33.993
  O      158.005     251.416      33.585
  O      158.402     250.531      31.274
  H      159.624     259.156      31.375
  H      157.496     250.247      31.495
  H      152.601     257.575      36.082
  H      158.915     257.112      35.068
  H      156.755     257.446      32.018
  H      159.220     258.195      33.361
  H      151.507     257.481      34.070
  H      160.251     256.224      32.988
  H      152.373     257.164      32.616
  H      158.727     255.541      30.435
  H      160.467     253.931      31.326
  H      159.761     254.072      32.933
  P      162.468     257.071      31.834
  C      163.278     257.625      29.472
  O      163.307     258.002      30.835
  O      163.049     255.611      31.546
  O      162.614     257.415      33.282
  H      163.813     255.440      32.127
  H      164.106     258.113      28.948
  H      162.333     257.948      29.025
  H      163.379     256.539      29.359
  H      161.993     250.271      33.197
  H      160.554     249.340      32.859
  H      160.622     250.358      34.277

 3  4  5  6  7  8  9  10  11  12  23  26  30  31 0
 6-311+G(2d,p)
 ****
 33  35  36  37  38 0
 6-311+G(2d,p)
 ****
 1  2  13  14  15  16  17  18  19  20  21  22  24  25 0
 3-21G
 ****
 27  28  29  32  34  39  40  41  42  43  44  45  46  47  48  49 0
 3-21G
 ****


