%nproc=1
%NoSave
%Mem=1900MB
#P OB98/GEN NMR

erre ene a

0 1
  C      -68.479      47.444     -15.144
  O      -67.952      46.735     -14.041
  H      -69.535      47.650     -14.956
  H      -68.392      46.846     -16.055
  H      -67.949      48.391     -15.269
  P      -66.430      46.236     -14.172
  C      -67.477      43.896     -14.651
  O      -66.549      44.894     -15.048
  C      -68.288      43.429     -15.855
  O      -68.950      44.547     -16.489
  C      -67.462      42.773     -16.958
  O      -67.092      41.437     -16.666
  C      -68.454      42.847     -18.105
  O      -69.480      41.853     -17.921
  C      -69.017      44.271     -17.915
  N      -68.276      45.285     -18.670
  C      -68.477      45.308     -20.055
  O      -69.239      44.508     -20.592
  N      -67.778      46.220     -20.809
  C      -66.966      47.051     -20.232
  N      -66.301      47.928     -21.031
  C      -66.734      47.071     -18.777
  C      -67.412      46.174     -18.065
  O      -66.098      45.672     -12.711
  O      -65.453      47.239     -14.686
  H      -70.142      42.004     -18.619
  H      -65.228      45.204     -12.721
  H      -66.038      47.774     -18.343
  H      -67.294      46.128     -16.988
  H      -70.072      44.320     -18.209
  H      -68.005      42.661     -19.080
  H      -66.583      43.375     -17.214
  H      -69.069      42.752     -15.489
  H      -66.436      47.850     -22.030
  H      -68.142      44.327     -13.894
  H      -65.542      48.508     -20.698
  H      -66.949      43.043     -14.216
  P      -65.522      41.111     -16.579
  C      -65.782      40.331     -19.049
  O      -64.985      41.006     -18.084
  O      -65.493      39.597     -16.068
  O      -64.740      42.020     -15.683
  H      -64.722      39.438     -15.490
  H      -65.286      40.349     -19.997
  H      -66.730      40.820     -19.133
  H      -65.930      39.316     -18.743

 6  7  8  9  10  11  12  13  14  15  16  26  30  31  32  33  35 0
 6-311+G(2d,p)
 ****
 37  38 0
 6-311+G(2d,p)
 ****
 1  2  3  4  5  17  18  19  20  21  22  23  24  25 0
 3-21G
 ****
 27  28  29  34  36  39  40  41  42  43  44  45  46 0
 3-21G
 ****


