%nproc=1
%NoSave
%Mem=1900MB
#P OB98/GEN NMR

erre ene a

0 1
  C       24.654      45.693     -41.507
  O       25.669      46.675     -41.553
  P       25.352      48.209     -41.234
  C       25.445      48.850     -43.713
  O       24.661      48.854     -42.528
  C       24.642      49.344     -44.915
  O       23.410      48.583     -45.016
  C       24.272      50.832     -44.853
  O       24.370      51.349     -46.184
  C       22.826      50.806     -44.397
  O       22.128      51.995     -44.738
  C       22.330      49.534     -45.093
  N       21.115      49.008     -44.491
  C       19.953      49.766     -44.646
  O       20.009      50.887     -45.154
  N       18.764      49.239     -44.208
  C       18.768      48.146     -43.509
  N       17.564      47.623     -43.153
  C       20.010      47.453     -43.113
  C       21.131      47.906     -43.668
  O       26.499      48.994     -40.690
  O       24.149      48.151     -40.177
  H       24.389      48.679     -39.391
  H       22.655      52.767     -44.442
  H       19.973      46.620     -42.427
  H       22.090      47.447     -43.462
  H       22.143      49.725     -46.157
  H       22.785      50.688     -43.308
  H       24.928      51.405     -44.192
  H       25.224      49.140     -45.821
  H       16.734      48.103     -43.477
  H       25.772      47.825     -43.901
  H       17.454      46.642     -42.898
  H       26.341      49.464     -43.569
  P       24.521      52.937     -46.375
  C       21.983      53.305     -46.770
  O       23.120      53.613     -45.992
  O       24.528      53.069     -47.977
  O       25.753      53.563     -45.810
  H       24.997      53.887     -48.225
  H       21.141      53.902     -46.410
  H       21.728      52.247     -46.669
  H       22.159      53.545     -47.822
  H       25.070      44.738     -41.751
  H       23.888      45.939     -42.213
  H       24.235      45.659     -40.523

 3  4  5  6  7  8  9  10  11  12  13  24  27  28  29  30  32 0
 6-311+G(2d,p)
 ****
 34  35 0
 6-311+G(2d,p)
 ****
 1  2  14  15  16  17  18  19  20  21  22  23  25  26 0
 3-21G
 ****
 31  33  36  37  38  39  40  41  42  43  44  45  46 0
 3-21G
 ****


