%nproc=1
%NoSave
%Mem=1900MB
#P OB98/GEN NMR

erre ene a

0 1
  C        4.973      18.428     -14.829
  O        3.875      19.256     -15.163
  P        3.627      19.683     -16.686
  C        2.846      18.309     -18.753
  O        3.579      18.333     -17.548
  C        3.483      17.354     -19.770
  O        4.681      17.987     -20.284
  C        3.933      16.015     -19.197
  O        4.106      15.094     -20.276
  C        5.280      16.366     -18.607
  O        6.101      15.217     -18.414
  C        5.826      17.408     -19.616
  N        6.608      18.459     -18.938
  C        7.605      18.036     -18.064
  O        7.897      16.852     -17.904
  N        8.198      19.015     -17.316
  C        7.856      20.335     -17.331
  O        8.170      21.132     -16.455
  C        6.976      20.750     -18.434
  C        6.378      19.803     -19.162
  O        5.021      20.350     -17.098
  O        2.483      20.612     -16.900
  H        6.312      14.864     -19.309
  H        4.971      21.320     -17.007
  H        8.817      18.692     -16.582
  H        6.798      21.807     -18.574
  H        5.682      20.078     -19.949
  H        6.472      16.938     -20.367
  H        5.131      16.834     -17.627
  H        3.255      15.597     -18.447
  H        2.794      17.204     -20.609
  H        2.787      19.323     -19.160
  H        1.815      17.991     -18.564
  P        4.021      13.527     -19.946
  C        2.246      11.990     -18.909
  O        2.690      13.321     -19.077
  O        5.257      12.909     -19.384
  O        3.624      12.882     -21.359
  H        3.832      11.930     -21.356
  H        1.716      11.913     -17.956
  H        3.081      11.285     -18.908
  H        1.558      11.736     -19.719
  H        4.977      18.250     -13.774
  H        5.884      18.912     -15.113
  H        4.888      17.496     -15.348

 3  4  5  6  7  8  9  10  11  12  13  23  28  29  30  31  32 0
 6-311+G(2d,p)
 ****
 33  34 0
 6-311+G(2d,p)
 ****
 1  2  14  15  16  17  18  19  20  21  22  24  25  26  27 0
 3-21G
 ****
 35  36  37  38  39  40  41  42  43  44  45 0
 3-21G
 ****


