%nproc=1
%NoSave
%Mem=1900MB
#P OB98/GEN NMR

erre ene a

0 1
  C      295.224     -42.656     129.117
  O      295.205     -44.072     128.863
  P      293.837     -44.760     128.372
  C      291.893     -46.161     129.417
  O      292.994     -45.288     129.636
  C      290.889     -46.090     130.581
  O      291.460     -46.703     131.784
  C      290.459     -44.668     130.967
  O      289.102     -44.738     131.419
  C      291.382     -44.355     132.138
  O      290.910     -43.293     132.950
  C      291.410     -45.714     132.830
  N      292.530     -45.891     133.765
  C      292.308     -45.609     135.112
  O      291.248     -45.172     135.564
  N      293.379     -45.831     135.935
  C      294.621     -46.254     135.568
  O      295.544     -46.402     136.350
  C      294.801     -46.500     134.125
  C      293.763     -46.314     133.306
  O      294.360     -46.126     127.717
  O      293.047     -43.978     127.367
  H      291.475     -43.261     133.744
  H      293.923     -46.267     126.859
  H      293.235     -45.658     136.923
  H      295.778     -46.834     133.786
  H      293.874     -46.499     132.238
  H      290.464     -45.870     133.369
  H      292.366     -44.065     131.747
  H      290.551     -43.950     130.139
  H      290.011     -46.690     130.307
  H      292.260     -47.191     129.329
  H      291.404     -45.894     128.475
  P      287.979     -43.924     130.593
  C      286.285     -42.053     131.295
  O      287.514     -42.696     131.518
  O      286.747     -44.948     130.704
  O      288.361     -43.593     129.195
  H      286.629     -45.303     131.594
  H      285.490     -42.769     131.059
  H      286.392     -41.331     130.469
  H      285.996     -41.508     132.201
  H      296.203     -42.364     129.433
  H      294.516     -42.422     129.885
  H      294.966     -42.130     128.222

 3  4  5  6  7  8  9  10  11  12  13  23  28  29  30  31  32 0
 6-311+G(2d,p)
 ****
 33  34 0
 6-311+G(2d,p)
 ****
 1  2  14  15  16  17  18  19  20  21  22  24  25  26 0
 3-21G
 ****
 27  35  36  37  38  39  40  41  42  43  44  45 0
 3-21G
 ****


