%nproc=1
%NoSave
%Mem=1900MB
#P OB98/GEN NMR

erre ene a

0 1
  C      175.652     153.197    -263.354
  O      175.461     153.795    -262.087
  H      176.649     153.460    -263.717
  H      174.913     153.574    -264.064
  H      175.580     152.109    -263.285
  P      174.135     153.443    -261.259
  C      174.288     155.733    -260.081
  O      173.473     154.835    -260.825
  C      174.064     157.161    -260.570
  O      174.604     157.325    -261.899
  C      172.596     157.556    -260.668
  O      172.052     157.830    -259.392
  C      172.684     158.756    -261.595
  O      173.070     159.936    -260.874
  C      173.797     158.317    -262.572
  N      173.272     157.802    -263.837
  C      173.077     158.734    -264.853
  O      173.293     159.937    -264.716
  N      172.594     158.236    -266.033
  C      172.188     156.952    -266.254
  O      171.676     156.577    -267.304
  C      172.393     156.018    -265.138
  C      172.918     156.477    -264.000
  O      174.304     152.452    -260.157
  O      173.124     152.903    -262.380
  H      173.327     160.598    -261.546
  H      173.055     151.932    -262.313
  H      172.434     158.897    -266.776
  H      172.097     154.988    -265.280
  H      173.071     155.805    -263.165
  H      174.460     159.162    -262.797
  H      171.733     158.975    -262.080
  H      172.027     156.764    -261.169
  H      174.607     157.843    -259.899
  H      175.338     155.458    -260.227
  H      174.039     155.641    -259.018
  P      170.470     157.773    -259.168
  C      170.396     158.520    -256.711
  O      170.091     158.865    -258.059
  O      169.906     156.411    -258.933
  O      169.873     158.406    -260.513
  H      169.313     157.744    -260.961
  H      170.101     159.319    -256.063
  H      171.449     158.353    -256.615
  H      169.868     157.629    -256.443

 6  7  8  9  10  11  12  13  14  15  16  26  31  32  33  34  35 0
 6-311+G(2d,p)
 ****
 36  37 0
 6-311+G(2d,p)
 ****
 1  2  3  4  5  17  18  19  20  21  22  23  24  25 0
 3-21G
 ****
 27  28  29  30  38  39  40  41  42  43  44  45 0
 3-21G
 ****


