%nproc=1
%NoSave
%Mem=1900MB
#P OB98/GEN NMR

erre ene a

0 1
  C     -178.465     107.904    -191.248
  O     -178.564     107.824    -189.845
  H     -178.404     106.888    -191.650
  H     -177.559     108.441    -191.538
  H     -179.345     108.395    -191.671
  P     -178.626     109.177    -188.982
  C     -176.106     109.377    -189.424
  O     -177.127     109.400    -188.435
  C     -175.179     110.585    -189.280
  O     -175.946     111.808    -189.443
  C     -174.466     110.662    -187.920
  O     -173.078     110.934    -188.117
  C     -175.128     111.851    -187.240
  O     -174.305     112.451    -186.245
  C     -175.458     112.729    -188.450
  N     -176.430     113.765    -188.127
  C     -176.128     115.055    -188.573
  O     -175.093     115.266    -189.209
  N     -176.973     116.084    -188.246
  C     -178.005     115.853    -187.496
  N     -178.786     116.921    -187.183
  C     -178.346     114.511    -186.979
  C     -177.527     113.523    -187.333
  O     -179.691     109.203    -187.937
  O     -178.781     110.347    -190.066
  H     -173.514     112.834    -186.684
  H     -179.173     111.138    -189.627
  H     -179.216     114.372    -186.353
  H     -177.695     112.504    -187.001
  H     -174.553     113.210    -188.846
  H     -176.055     111.519    -186.756
  H     -174.572     109.754    -187.328
  H     -174.455     110.566    -190.106
  H     -178.512     117.823    -187.554
  H     -176.575     109.370    -190.413
  H     -179.600     116.868    -186.590
  H     -175.520     108.462    -189.295
  P     -172.091     109.671    -188.036
  C     -171.341     110.673    -185.765
  O     -170.955     109.996    -186.951
  O     -171.318     109.718    -189.436
  O     -172.801     108.372    -187.849
  H     -171.603     108.976    -190.000
  H     -170.483     110.819    -185.142
  H     -172.067     110.088    -185.240
  H     -171.764     111.623    -186.018

 6  7  8  9  10  11  12  13  14  15  16  26  30  31  32  33  35 0
 6-311+G(2d,p)
 ****
 37  38 0
 6-311+G(2d,p)
 ****
 1  2  3  4  5  17  18  19  20  21  22  23  24  25 0
 3-21G
 ****
 27  28  29  34  36  39  40  41  42  43  44  45  46 0
 3-21G
 ****


