%nproc=1
%NoSave
%Mem=1900MB
#P OB98/GEN NMR

erre ene a

0 1
  C       86.156       0.688      16.014
  O       87.349       1.421      15.835
  H       85.551       0.783      15.109
  H       85.587       1.084      16.858
  H       86.379      -0.370      16.176
  P       88.394       1.500      17.047
  C       89.766      -0.456      16.070
  O       89.780       0.899      16.504
  C       91.166      -0.878      15.606
  O       91.798       0.280      15.007
  C       92.046      -1.365      16.765
  O       92.622      -2.646      16.524
  C       92.987      -0.190      17.004
  O       94.226      -0.543      17.583
  C       93.086       0.463      15.623
  N       93.439       1.881      15.665
  C       94.791       2.201      15.747
  O       95.710       1.386      15.775
  N       95.080       3.541      15.793
  C       94.176       4.560      15.780
  O       94.496       5.742      15.820
  C       92.762       4.158      15.721
  C       92.464       2.859      15.668
  O       87.927       0.920      18.339
  O       88.711       3.063      17.185
  H       94.693      -1.116      16.938
  H       88.254       3.419      17.971
  H       96.057       3.786      15.837
  H       92.018       4.942      15.722
  H       91.431       2.527      15.621
  H       93.833      -0.044      15.010
  H       92.498       0.508      17.694
  H       91.446      -1.527      17.668
  H       91.064      -1.640      14.826
  H       89.052      -0.537      15.245
  H       89.438      -1.102      16.892
  P       92.964      -3.724      17.647
  C       90.468      -4.536      17.793
  O       91.841      -4.861      17.623
  O       93.339      -3.178      18.983
  O       94.256      -4.490      17.059
  H       94.793      -4.755      17.833
  H       89.881      -5.430      17.746
  H       90.161      -3.866      17.017
  H       90.328      -4.067      18.745

 6  7  8  9  10  11  12  13  14  15  16  26  31  32  33  34  35 0
 6-311+G(2d,p)
 ****
 36  37 0
 6-311+G(2d,p)
 ****
 1  2  3  4  5  17  18  19  20  21  22  23  24  25 0
 3-21G
 ****
 27  28  29  30  38  39  40  41  42  43  44  45 0
 3-21G
 ****


