%nproc=1
%NoSave
%Mem=1900MB
#P OB98/GEN NMR

erre ene a

0 1
  C      592.382     997.130    -303.565
  O      592.067     995.765    -303.765
  H      593.284     997.368    -304.132
  H      592.564     997.318    -302.498
  H      591.564     997.763    -303.917
  P      590.669     995.250    -303.165
  C      589.650     994.748    -305.544
  O      589.583     995.483    -304.334
  C      588.782     995.397    -306.626
  O      589.150     996.797    -306.735
  C      588.921     994.755    -307.999
  O      587.645     994.787    -308.650
  C      589.875     995.696    -308.721
  O      589.756     995.598    -310.125
  C      589.485     997.053    -308.129
  N      590.536     998.055    -308.243
  C      590.124     999.359    -308.496
  O      588.939     999.637    -308.637
  N      591.086    1000.339    -308.655
  C      592.334    1000.037    -308.610
  N      593.223    1001.031    -308.792
  C      592.813     998.642    -308.389
  C      591.876     997.727    -308.192
  O      590.325     996.386    -302.093
  O      590.708     993.873    -302.607
  H      589.740     994.642    -310.380
  H      590.480     997.288    -302.424
  H      593.875     998.430    -308.359
  H      592.140     996.695    -308.007
  H      588.568     997.438    -308.608
  H      590.918     995.451    -308.460
  H      589.287     993.730    -307.953
  H      587.730     995.363    -306.281
  H      592.853    1001.964    -308.984
  H      589.326     993.713    -305.382
  H      594.225    1000.900    -308.840
  H      590.687     994.720    -305.869
  P      586.668     993.530    -308.502
  C      585.141     994.570    -306.693
  O      586.020     993.522    -307.036
  O      587.193     992.219    -308.983
  O      585.398     993.979    -309.412
  H      585.104     993.190    -309.909
  H      584.792     994.429    -305.691
  H      584.308     994.571    -307.364
  H      585.656     995.505    -306.763

 6  7  8  9  10  11  12  13  14  15  16  26  30  31  32  33  35 0
 6-311+G(2d,p)
 ****
 37  38 0
 6-311+G(2d,p)
 ****
 1  2  3  4  5  17  18  19  20  21  22  23  24  25 0
 3-21G
 ****
 27  28  29  34  36  39  40  41  42  43  44  45  46 0
 3-21G
 ****


