%nproc=1
%NoSave
%Mem=1900MB
#P OB98/GEN NMR

erre ene a

0 1
  C      145.050      78.718    -286.431
  O      144.993      77.342    -286.742
  H      145.956      78.907    -285.848
  H      144.182      79.005    -285.834
  H      145.089      79.314    -287.346
  P      143.744      76.842    -287.623
  C      142.563      76.459    -285.335
  O      142.468      76.984    -286.653
  C      141.185      76.013    -284.837
  O      140.384      77.182    -284.549
  C      140.423      75.159    -285.854
  O      139.799      74.065    -285.177
  C      139.380      76.104    -286.423
  O      138.231      75.414    -286.910
  C      139.127      77.051    -285.241
  N      138.627      78.351    -285.685
  C      137.241      78.478    -285.836
  O      136.505      77.513    -285.613
  N      136.727      79.665    -286.288
  C      137.529      80.629    -286.617
  N      136.960      81.775    -287.078
  C      139.000      80.526    -286.520
  C      139.476      79.376    -286.046
  O      143.978      75.262    -287.712
  O      143.594      77.510    -288.950
  H      137.817      74.943    -286.154
  H      143.404      74.851    -288.401
  H      139.628      81.351    -286.824
  H      140.543      79.209    -285.943
  H      138.400      76.614    -284.544
  H      139.812      76.664    -287.259
  H      141.060      74.766    -286.644
  H      141.316      75.477    -283.889
  H      135.949      81.806    -287.142
  H      142.960      77.233    -284.672
  H      137.489      82.578    -287.391
  H      143.245      75.602    -285.338
  P      140.213      72.597    -285.683
  C      137.965      72.450    -286.969
  O      139.376      72.295    -287.023
  O      139.559      71.627    -284.593
  O      141.688      72.403    -285.810
  H      140.227      71.343    -283.944
  H      137.544      72.217    -287.925
  H      137.727      73.461    -286.711
  H      137.562      71.789    -286.231

 6  7  8  9  10  11  12  13  14  15  16  26  30  31  32  33  35 0
 6-311+G(2d,p)
 ****
 37  38 0
 6-311+G(2d,p)
 ****
 1  2  3  4  5  17  18  19  20  21  22  23  24  25 0
 3-21G
 ****
 27  28  29  34  36  39  40  41  42  43  44  45  46 0
 3-21G
 ****


