%nproc=1
%NoSave
%Mem=1900MB
#P OB98/GEN NMR

erre ene a

0 1
  C     -377.373     860.558    -611.848
  O     -376.828     861.160    -610.684
  H     -376.836     860.938    -612.717
  H     -378.429     860.807    -611.951
  H     -377.248     859.468    -611.804
  P     -377.477     860.801    -609.263
  C     -377.644     863.285    -608.574
  O     -377.095     862.008    -608.284
  C     -377.269     864.292    -607.479
  O     -377.843     863.906    -606.217
  C     -375.753     864.419    -607.250
  O     -375.174     865.277    -608.213
  C     -375.752     865.020    -605.848
  O     -376.078     866.427    -605.919
  C     -376.906     864.261    -605.167
  N     -375.428     862.229    -600.751
  C     -375.624     863.548    -601.101
  N     -375.356     864.460    -600.147
  N     -376.027     863.938    -602.280
  C     -376.182     862.921    -603.150
  C     -376.012     861.573    -602.934
  C     -375.625     861.147    -601.607
  O     -375.473     859.983    -601.251
  N     -376.176     860.838    -604.087
  C     -376.506     861.743    -604.990
  N     -376.523     863.033    -604.488
  O     -377.149     859.441    -608.716
  O     -379.053     860.994    -609.486
  H     -376.941     866.502    -606.371
  H     -379.481     860.159    -609.757
  H     -375.105     861.981    -599.825
  H     -376.761     861.534    -606.033
  H     -377.436     864.879    -604.439
  H     -374.784     864.943    -605.363
  H     -374.900     864.231    -599.279
  H     -375.275     863.440    -607.208
  H     -375.431     865.440    -600.394
  H     -377.704     865.275    -607.760
  H     -378.735     863.172    -608.623
  H     -377.280     863.651    -609.546
  P     -373.940     864.790    -609.134
  C     -372.553     866.945    -608.712
  O     -373.251     866.146    -609.655
  O     -374.301     863.813    -610.196
  O     -372.861     864.259    -608.076
  H     -372.998     863.317    -607.817
  H     -372.152     867.807    -609.203
  H     -371.755     866.375    -608.283
  H     -373.226     867.255    -607.940

 6  7  8  9  10  11  12  13  14  15  26  29  33  34 0
 6-311+G(2d,p)
 ****
 36  38  39  40  41 0
 6-311+G(2d,p)
 ****
 1  2  3  4  5  16  17  18  19  20  21  22  23  24  25 0
 3-21G
 ****
 27  28  30  31  32  35  37  42  43  44  45  46  47 0
 3-21G
 ****
 48  49 0
 3-21G
 ****


