%nproc=1
%NoSave
%Mem=1900MB
#P OB98/GEN NMR

erre ene a

0 1
  C      328.970    -272.430    1160.876
  O      329.829    -271.619    1160.070
  P      330.618    -272.208    1158.789
  C      328.895    -271.383    1157.034
  O      329.538    -272.515    1157.629
  C      329.583    -270.949    1155.740
  O      329.595    -272.042    1154.789
  C      328.907    -269.788    1155.014
  O      329.254    -268.551    1155.632
  C      329.441    -269.975    1153.595
  O      330.761    -269.428    1153.479
  C      329.481    -271.496    1153.473
  N      327.042    -271.985    1148.980
  C      328.238    -271.417    1149.307
  N      328.812    -271.324    1150.529
  C      328.034    -271.922    1151.470
  C      326.814    -272.548    1151.278
  C      326.311    -272.560    1149.969
  N      325.102    -273.130    1149.629
  N      326.309    -273.018    1152.473
  C      327.243    -272.701    1153.354
  N      328.301    -272.050    1152.805
  O      331.531    -273.348    1159.099
  O      331.438    -270.949    1158.202
  H      331.320    -269.865    1154.152
  H      332.234    -271.279    1157.745
  H      328.792    -270.984    1148.485
  H      327.188    -272.930    1154.422
  H      330.366    -271.841    1152.902
  H      328.808    -269.476    1152.842
  H      327.822    -269.933    1155.029
  H      330.629    -270.710    1155.972
  H      328.933    -270.544    1157.769
  H      324.777    -273.077    1148.665
  H      324.518    -273.514    1150.372
  H      327.847    -271.636    1156.858
  P      328.205    -267.337    1155.626
  C      327.290    -267.616    1158.009
  O      327.019    -267.730    1156.620
  O      327.780    -266.859    1154.270
  O      328.975    -266.189    1156.441
  H      328.673    -265.319    1156.115
  H      327.861    -268.490    1158.338
  H      326.340    -267.564    1158.548
  H      327.868    -266.714    1158.233
  H      328.555    -271.837    1161.664
  H      329.533    -273.238    1161.296
  H      328.179    -272.822    1160.271

 3  4  5  6  7  8  9  10  11  12  22  25  29  30  31  32 0
 6-311+G(2d,p)
 ****
 33  36  37 0
 6-311+G(2d,p)
 ****
 1  2  13  14  15  16  17  18  19  20  21  23  24  26 0
 3-21G
 ****
 27  28  34  35  38  39  40  41  42  43  44  45  46  47  48 0
 3-21G
 ****


