%nproc=1
%NoSave
%Mem=1900MB
#P OB98/GEN NMR

erre ene a

0 1
  C      -67.958     146.133     129.456
  O      -68.891     145.088     129.256
  H      -66.977     145.794     129.113
  H      -67.888     146.396     130.514
  H      -68.248     147.010     128.873
  P      -70.340     145.230     129.931
  C      -71.799     144.928     127.827
  O      -71.321     144.330     129.029
  C      -72.674     143.956     127.036
  O      -71.884     142.864     126.516
  C      -73.764     143.288     127.858
  O      -74.773     144.159     128.317
  C      -74.143     142.109     126.977
  O      -75.060     142.472     125.946
  C      -72.773     141.735     126.360
  N      -72.212     140.524     126.947
  C      -72.448     139.343     126.252
  O      -73.107     139.287     125.214
  N      -71.926     138.208     126.808
  C      -71.249     138.137     127.991
  O      -70.824     137.081     128.447
  C      -71.063     139.411     128.701
  C      -71.544     140.531     128.155
  O      -70.824     146.635     130.137
  O      -70.217     144.387     131.284
  H      -74.975     141.802     125.241
  H      -70.958     144.597     131.904
  H      -72.073     137.344     126.312
  H      -70.541     139.389     129.647
  H      -71.417     141.486     128.660
  H      -72.876     141.570     125.278
  H      -74.602     141.298     127.549
  H      -73.304     142.866     128.760
  H      -73.095     144.497     126.180
  H      -70.929     145.204     127.222
  H      -72.365     145.834     128.070
  P      -75.793     143.796     129.486
  C      -75.798     146.006     130.883
  O      -76.496     145.147     129.989
  O      -75.313     142.828     130.518
  O      -76.989     143.083     128.666
  H      -77.358     142.386     129.245
  H      -76.409     146.854     131.113
  H      -74.889     146.336     130.424
  H      -75.571     145.475     131.784

 6  7  8  9  10  11  12  13  14  15  16  26  31  32  33  34  35 0
 6-311+G(2d,p)
 ****
 36  37 0
 6-311+G(2d,p)
 ****
 1  2  3  4  5  17  18  19  20  21  22  23  24  25 0
 3-21G
 ****
 27  28  29  30  38  39  40  41  42  43  44  45 0
 3-21G
 ****


