%nproc=1
%NoSave
%Mem=1900MB
#P OB98/GEN NMR

erre ene a

0 1
  C      126.930    -465.830      -3.060
  O      125.887    -465.549      -3.980
  P      125.730    -464.021      -4.461
  C      124.084    -464.774      -6.352
  O      124.323    -463.935      -5.230
  C      122.580    -464.906      -6.579
  O      122.039    -465.968      -5.768
  C      121.782    -463.655      -6.233
  O      121.835    -462.721      -7.299
  C      120.389    -464.235      -5.993
  O      119.707    -464.460      -7.240
  C      120.714    -465.570      -5.298
  N      117.750    -465.243      -1.216
  C      117.437    -465.115      -2.557
  N      116.129    -464.912      -2.851
  N      118.314    -465.179      -3.520
  C      119.583    -465.366      -3.079
  C      120.018    -465.494      -1.779
  C      119.029    -465.467      -0.726
  O      119.245    -465.678       0.468
  N      121.386    -465.648      -1.722
  C      121.755    -465.652      -2.983
  N      120.702    -465.505      -3.846
  O      126.820    -463.895      -5.625
  O      125.911    -463.000      -3.383
  H      119.544    -463.604      -7.684
  H      127.639    -463.477      -5.288
  H      117.024    -465.198      -0.519
  H      122.780    -465.778      -3.330
  H      120.019    -466.367      -5.591
  H      119.759    -463.570      -5.403
  H      115.400    -464.830      -2.156
  H      122.158    -463.205      -5.308
  H      115.879    -464.817      -3.830
  H      122.423    -465.182      -7.636
  H      124.507    -465.763      -6.157
  H      124.577    -464.344      -7.231
  P      122.415    -461.259      -6.972
  C      124.540    -461.038      -8.466
  O      123.161    -460.745      -8.292
  O      123.618    -461.562      -5.949
  O      121.425    -460.313      -6.383
  H      123.668    -460.849      -5.286
  H      124.753    -461.108      -9.534
  H      124.816    -461.977      -7.975
  H      125.128    -460.221      -8.032
  H      126.925    -466.873      -2.823
  H      126.780    -465.261      -2.166
  H      127.871    -465.568      -3.497

 3  4  5  6  7  8  9  10  11  12  23  26  30  31 0
 6-311+G(2d,p)
 ****
 33  35  36  37  38 0
 6-311+G(2d,p)
 ****
 1  2  13  14  15  16  17  18  19  20  21  22  24  25 0
 3-21G
 ****
 27  28  29  32  34  39  40  41  42  43  44  45  46  47  48  49 0
 3-21G
 ****


