%nproc=1
%NoSave
%Mem=1900MB
#P OB98/GEN NMR

erre ene a

0 1
  C      171.218     513.994     177.823
  O      170.379     514.851     178.569
  H      172.188     514.485     177.688
  H      170.780     513.811     176.836
  H      171.382     513.048     178.335
  P      169.014     514.265     179.160
  C      167.733     516.412     178.514
  O      168.110     515.537     179.558
  C      167.427     517.812     179.047
  O      166.512     517.691     180.183
  C      168.661     518.579     179.533
  O      168.421     519.979     179.310
  C      168.654     518.271     181.014
  O      169.460     519.176     181.745
  C      167.155     518.316     181.307
  N      166.807     517.656     182.572
  C      166.934     518.425     183.727
  O      167.339     519.584     183.737
  N      166.618     517.794     184.898
  C      166.255     516.485     185.036
  O      166.012     515.961     186.115
  C      166.181     515.710     183.779
  C      166.457     516.323     182.630
  O      169.153     513.239     180.232
  O      168.242     513.680     177.884
  H      169.393     518.990     182.704
  H      167.679     512.929     178.141
  H      166.687     518.335     185.746
  H      165.912     514.662     183.851
  H      166.412     515.777     181.687
  H      166.796     519.352     181.373
  H      169.049     517.268     181.198
  H      169.583     518.274     179.031
  H      166.888     518.380     178.272
  H      166.838     515.990     178.022
  H      168.541     516.468     177.770
  P      168.847     520.723     177.960
  C      169.732     523.083     178.500
  O      168.601     522.295     178.136
  O      168.252     520.140     176.721
  O      170.458     520.607     177.922
  H      170.761     520.610     177.006
  H      169.439     524.109     178.586
  H      170.488     522.990     177.749
  H      170.117     522.742     179.438

 6  7  8  9  10  11  12  13  14  15  16  26  31  32  33  34  35 0
 6-311+G(2d,p)
 ****
 36  37 0
 6-311+G(2d,p)
 ****
 1  2  3  4  5  17  18  19  20  21  22  23  24  25 0
 3-21G
 ****
 27  28  29  30  38  39  40  41  42  43  44  45 0
 3-21G
 ****


