%nproc=1
%NoSave
%Mem=1900MB
#P OB98/GEN NMR

erre ene a

0 1
  C      529.332    -116.184     139.310
  O      528.014    -115.627     139.228
  P      526.941    -116.131     138.148
  C      525.429    -118.189     137.795
  O      526.198    -117.432     138.729
  C      524.656    -119.321     138.486
  O      525.559    -120.275     139.073
  C      523.736    -118.861     139.612
  O      522.538    -118.315     139.088
  C      523.567    -120.152     140.404
  O      522.570    -120.992     139.788
  C      524.954    -120.787     140.278
  N      525.578    -121.595     145.289
  C      524.641    -122.022     144.414
  N      524.539    -121.756     143.096
  C      525.562    -120.986     142.687
  C      526.588    -120.476     143.464
  C      526.573    -120.806     144.829
  N      527.526    -120.356     145.721
  N      527.440    -119.701     142.701
  C      526.942    -119.763     141.478
  N      525.809    -120.529     141.421
  O      527.495    -116.306     136.771
  O      525.795    -115.014     138.159
  H      521.789    -120.441     139.615
  H      525.359    -114.981     137.286
  H      523.863    -122.660     144.837
  H      527.367    -119.274     140.607
  H      524.893    -121.876     140.154
  H      523.250    -119.975     141.437
  H      524.249    -118.117     140.233
  H      524.080    -119.849     137.712
  H      526.113    -118.619     137.052
  H      527.424    -120.609     146.691
  H      528.244    -119.729     145.395
  H      524.733    -117.515     137.290
  P      522.273    -116.736     139.167
  C      522.685    -114.696     137.665
  O      522.709    -116.110     137.759
  O      522.825    -116.045     140.367
  O      520.673    -116.621     139.117
  H      520.391    -115.823     139.604
  H      521.656    -114.366     137.487
  H      523.303    -114.390     136.818
  H      523.073    -114.237     138.573
  H      529.875    -115.702     140.096
  H      529.841    -116.033     138.381
  H      529.264    -117.232     139.514

 3  4  5  6  7  8  9  10  11  12  22  25  29  30  31  32 0
 6-311+G(2d,p)
 ****
 33  36  37 0
 6-311+G(2d,p)
 ****
 1  2  13  14  15  16  17  18  19  20  21  23  24  26 0
 3-21G
 ****
 27  28  34  35  38  39  40  41  42  43  44  45  46  47  48 0
 3-21G
 ****


