%nproc=1
%NoSave
%Mem=1900MB
#P OB98/GEN NMR

erre ene a

0 1
  C      176.587    -313.287    -203.803
  O      177.076    -313.086    -205.139
  P      176.717    -311.788    -206.018
  C      174.531    -312.600    -207.125
  O      175.123    -311.691    -206.204
  C      173.200    -312.070    -207.672
  O      172.781    -312.867    -208.825
  C      172.048    -312.079    -206.659
  O      171.292    -310.883    -206.891
  C      171.276    -313.325    -207.078
  O      169.938    -313.357    -206.595
  C      171.397    -313.205    -208.603
  N      171.026    -314.403    -209.355
  C      169.667    -314.724    -209.440
  O      168.814    -314.062    -208.859
  N      169.301    -315.825    -210.185
  C      170.205    -316.538    -210.781
  N      169.777    -317.609    -211.514
  C      171.648    -316.244    -210.703
  C      171.981    -315.176    -209.989
  O      177.472    -311.717    -207.310
  O      177.072    -310.532    -205.092
  H      177.421    -309.811    -205.649
  H      169.425    -312.687    -207.078
  H      172.368    -316.855    -211.225
  H      173.024    -314.870    -209.905
  H      170.793    -312.355    -208.953
  H      171.788    -314.206    -206.690
  H      172.380    -312.090    -205.618
  H      173.372    -311.047    -208.052
  H      168.774    -317.773    -211.551
  H      174.348    -313.549    -206.609
  H      170.393    -318.221    -212.025
  H      175.237    -312.792    -207.940
  P      171.727    -309.513    -206.184
  C      169.680    -309.247    -204.589
  O      171.066    -309.485    -204.719
  O      170.827    -308.435    -206.964
  O      173.174    -309.155    -206.283
  H      171.270    -307.571    -206.931
  H      169.262    -309.947    -203.860
  H      169.141    -309.355    -205.540
  H      169.535    -308.226    -204.215
  H      176.958    -314.216    -203.424
  H      175.517    -313.307    -203.814
  H      176.922    -312.487    -203.176

 3  4  5  6  7  8  9  10  11  12  13  24  27  28  29  30  32 0
 6-311+G(2d,p)
 ****
 34  35 0
 6-311+G(2d,p)
 ****
 1  2  14  15  16  17  18  19  20  21  22  23  25  26 0
 3-21G
 ****
 31  33  36  37  38  39  40  41  42  43  44  45  46 0
 3-21G
 ****


