%nproc=1
%NoSave
%Mem=1900MB
#P OB98/GEN NMR

erre ene a

0 1
  C       86.114    -188.514     155.191
  O       85.658    -189.290     156.300
  P       85.789    -190.884     156.153
  C       88.192    -191.040     157.122
  O       86.825    -191.400     157.265
  C       89.049    -192.278     156.854
  O       90.314    -191.949     156.245
  C       89.387    -193.065     158.114
  O       88.284    -193.873     158.489
  C       90.596    -193.872     157.659
  O       90.195    -195.075     156.972
  C       91.303    -192.910     156.692
  N       96.149    -193.319     158.127
  C       95.255    -194.297     157.734
  N       95.727    -195.562     157.695
  N       94.012    -194.056     157.409
  C       93.677    -192.747     157.491
  C       94.480    -191.684     157.839
  C       95.854    -191.965     158.200
  O       96.688    -191.132     158.532
  N       93.803    -190.494     157.751
  C       92.564    -190.856     157.472
  N       92.447    -192.204     157.241
  O       86.579    -191.062     154.773
  O       84.473    -191.588     156.129
  H       89.629    -195.605     157.563
  H       85.982    -191.433     154.095
  H       97.093    -193.561     158.376
  H       91.724    -190.181     157.399
  H       91.668    -193.435     155.801
  H       91.210    -194.194     158.506
  H       96.674    -195.819     157.931
  H       89.672    -192.381     158.921
  H       95.090    -196.293     157.402
  H       88.494    -192.919     156.154
  H       88.544    -190.537     158.024
  H       88.281    -190.318     156.302
  P       87.658    -193.652     159.948
  C       85.571    -192.261     159.275
  O       86.075    -193.485     159.770
  O       88.158    -192.180     160.338
  O       88.087    -194.654     160.967
  H       88.470    -192.177     161.262
  H       84.641    -192.455     158.733
  H       86.280    -191.771     158.599
  H       85.358    -191.593     160.115
  H       85.977    -187.474     155.403
  H       85.554    -188.776     154.318
  H       87.152    -188.710     155.021

 3  4  5  6  7  8  9  10  11  12  23  26  30  31 0
 6-311+G(2d,p)
 ****
 33  35  36  37  38 0
 6-311+G(2d,p)
 ****
 1  2  13  14  15  16  17  18  19  20  21  22  24  25 0
 3-21G
 ****
 27  28  29  32  34  39  40  41  42  43  44  45  46  47  48  49 0
 3-21G
 ****


