%nproc=1
%NoSave
%Mem=1900MB
#P OB98/GEN NMR

erre ene a

0 1
  C      217.017     149.558      60.697
  O      216.403     150.118      59.555
  H      216.323     148.850      61.155
  H      217.241     150.345      61.421
  H      217.933     149.025      60.432
  P      217.297     150.966      58.532
  C      218.421     153.286      58.558
  O      217.762     152.285      59.320
  C      218.642     154.550      59.395
  O      217.359     155.205      59.607
  C      219.255     154.283      60.779
  O      220.044     155.429      61.126
  C      218.020     154.211      61.655
  O      218.341     154.366      63.017
  C      217.161     155.313      61.031
  N      215.751     155.205      61.404
  C      215.243     156.212      62.210
  O      215.925     157.145      62.636
  N      213.926     156.095      62.560
  C      213.105     155.056      62.235
  O      211.939     154.987      62.603
  C      213.709     153.994      61.413
  C      214.985     154.117      61.036
  O      216.686     151.220      57.195
  O      218.661     150.134      58.416
  H      218.686     155.270      63.185
  H      219.055     150.258      57.532
  H      213.539     156.823      63.138
  H      213.086     153.151      61.148
  H      215.459     153.351      60.433
  H      217.517     156.305      61.343
  H      217.528     153.238      61.544
  H      219.861     153.376      60.814
  H      219.262     155.248      58.818
  H      217.795     153.521      57.692
  H      219.385     152.902      58.206
  P      221.612     155.519      60.788
  C      223.832     155.066      62.012
  O      222.434     154.795      61.962
  O      222.091     156.899      60.469
  O      221.815     154.544      59.535
  H      222.573     154.849      59.002
  H      224.270     154.532      62.829
  H      223.987     156.116      62.148
  H      224.289     154.753      61.096

 6  7  8  9  10  11  12  13  14  15  16  26  31  32  33  34  35 0
 6-311+G(2d,p)
 ****
 36  37 0
 6-311+G(2d,p)
 ****
 1  2  3  4  5  17  18  19  20  21  22  23  24  25 0
 3-21G
 ****
 27  28  29  30  38  39  40  41  42  43  44  45 0
 3-21G
 ****


