%nproc=1
%NoSave
%Mem=1900MB
#P OB98/GEN NMR

erre ene a

0 1
  C      682.266    -642.246    -105.319
  O      683.333    -642.127    -104.379
  P      682.959    -641.590    -102.914
  C      682.201    -639.276    -102.008
  O      682.865    -639.994    -103.043
  C      681.818    -637.880    -102.482
  O      680.706    -637.972    -103.397
  C      681.360    -636.941    -101.370
  O      682.463    -636.368    -100.685
  C      680.606    -635.893    -102.185
  O      681.535    -634.941    -102.730
  C      679.960    -636.731    -103.297
  N      675.253    -634.875    -103.043
  C      676.449    -634.236    -103.340
  N      676.359    -632.919    -103.634
  N      677.609    -634.831    -103.338
  C      677.532    -636.149    -103.064
  C      676.405    -636.903    -102.758
  C      675.133    -636.216    -102.710
  O      674.053    -636.719    -102.390
  N      676.728    -638.218    -102.552
  C      678.032    -638.277    -102.774
  N      678.568    -637.046    -103.062
  O      684.313    -641.811    -102.093
  O      681.802    -642.269    -102.261
  H      682.295    -635.453    -103.089
  H      684.122    -641.901    -101.144
  H      674.378    -634.373    -103.069
  H      678.620    -639.192    -102.739
  H      680.047    -636.223    -104.264
  H      679.892    -635.322    -101.568
  H      675.488    -632.437    -103.773
  H      680.668    -637.448    -100.681
  H      677.220    -632.435    -103.889
  H      682.673    -637.455    -103.022
  H      682.871    -639.190    -101.145
  H      681.314    -639.844    -101.700
  P      682.140    -635.753     -99.232
  C      680.512    -633.923     -98.377
  O      681.093    -634.573     -99.495
  O      683.496    -634.989     -98.850
  O      681.764    -636.762     -98.200
  H      683.592    -634.919     -97.883
  H      681.219    -633.819     -97.554
  H      679.635    -634.492     -98.036
  H      680.180    -632.922     -98.683
  H      682.649    -642.612    -106.249
  H      681.816    -641.287    -105.471
  H      681.533    -642.928    -104.942

 3  4  5  6  7  8  9  10  11  12  23  26  30  31  33  0
 6-311+G(2d,p)
 ****
 35  36  37  38 0
 6-311+G(2d,p)
 ****
 1  2  13  14  15  16  17  18  19  20  21  22  24  25  27  28  29 0
 3-21G
 ****
 32  34  39  40  41  42  43  44  45  46  47  48  49 0
 3-21G
 ****


