%nproc=1
%NoSave
%Mem=1900MB
#P OB98/GEN NMR

erre ene a

0 1
  C      338.345    -155.252     762.972
  O      338.296    -153.938     763.497
  H      338.792    -155.214     761.975
  H      337.335    -155.663     762.884
  H      338.962    -155.898     763.606
  P      337.775    -153.718     764.994
  C      340.212    -153.897     765.809
  O      338.883    -154.372     765.964
  C      341.151    -154.612     766.780
  O      340.878    -154.147     768.129
  C      341.005    -156.140     766.763
  O      342.301    -156.713     766.927
  C      340.162    -156.423     767.999
  O      340.388    -157.735     768.524
  C      340.605    -155.310     768.943
  N      338.883    -156.521     773.539
  C      339.998    -156.972     772.867
  N      340.771    -157.887     773.490
  N      340.343    -156.536     771.668
  C      339.502    -155.611     771.165
  C      338.355    -155.090     771.736
  C      337.983    -155.580     773.047
  O      336.995    -155.234     773.691
  N      337.743    -154.177     770.904
  C      338.512    -154.156     769.831
  N      339.583    -155.008     769.936
  O      336.373    -154.171     765.261
  O      337.952    -152.147     765.239
  H      341.326    -157.775     768.786
  H      337.097    -151.688     765.134
  H      338.667    -156.893     774.448
  H      338.344    -153.542     768.952
  H      341.528    -155.563     769.496
  H      339.099    -156.328     767.744
  H      340.565    -158.245     774.409
  H      340.528    -156.521     765.851
  H      341.605    -158.208     773.015
  H      342.184    -154.307     766.546
  H      340.225    -152.816     766.017
  H      340.540    -154.053     764.779
  P      343.196    -156.950     765.605
  C      345.167    -155.490     766.404
  O      344.148    -155.674     765.421
  O      342.457    -157.401     764.390
  O      344.244    -158.077     766.111
  H      344.496    -158.621     765.325
  H      345.731    -154.611     766.172
  H      345.817    -156.340     766.408
  H      344.717    -155.381     767.368

 6  7  8  9  10  11  12  13  14  15  26  29  33  34 0
 6-311+G(2d,p)
 ****
 36  38  39  40  41 0
 6-311+G(2d,p)
 ****
 1  2  3  4  5  16  17  18  19  20  21  22  23  24  25 0
 3-21G
 ****
 27  28  30  31  32  35  37  42  43  44  45  46  47 0
 3-21G
 ****
 48  49 0
 3-21G
 ****


