%nproc=1
%NoSave
%Mem=1900MB
#P OB98/GEN NMR

erre ene a

0 1
  C       10.954    -304.643    -550.818
  O       10.913    -303.821    -551.973
  P       11.828    -302.509    -552.073
  C       13.720    -303.810    -553.234
  O       13.352    -303.015    -552.110
  C       15.141    -303.487    -553.678
  O       15.204    -302.102    -554.088
  C       16.184    -303.689    -552.579
  O       17.397    -304.183    -553.160
  C       16.443    -302.284    -552.050
  O       17.753    -302.181    -551.468
  C       16.228    -301.444    -553.312
  N       17.705    -296.617    -552.394
  C       18.415    -297.724    -552.692
  N       17.955    -298.983    -552.902
  C       16.615    -299.017    -552.830
  C       15.765    -297.957    -552.533
  C       16.360    -296.709    -552.309
  N       15.638    -295.570    -552.027
  N       14.447    -298.385    -552.525
  C       14.504    -299.667    -552.816
  N       15.793    -300.092    -553.021
  O       11.553    -301.462    -551.049
  O       11.592    -301.965    -553.559
  H       17.786    -302.813    -550.721
  H       11.568    -300.989    -553.562
  H       19.487    -297.590    -552.772
  H       13.652    -300.332    -552.885
  H       17.138    -301.394    -553.929
  H       15.712    -302.043    -551.274
  H       15.844    -304.369    -551.787
  H       15.388    -304.106    -554.552
  H       13.030    -303.590    -554.055
  H       16.138    -294.699    -551.997
  H       14.632    -295.600    -552.136
  H       13.622    -304.875    -552.977
  P       18.279    -305.149    -552.226
  C       17.402    -307.463    -553.040
  O       17.384    -306.469    -552.044
  O       18.749    -304.463    -550.992
  O       19.444    -305.569    -553.245
  H       19.155    -305.503    -554.178
  H       16.706    -308.261    -552.755
  H       18.409    -307.891    -553.125
  H       17.092    -307.053    -554.007
  H       10.278    -305.463    -550.940
  H       10.668    -304.069    -549.961
  H       11.947    -305.017    -550.681

 3  4  5  6  7  8  9  10  11  12  22  25  29  30  31  32 0
 6-311+G(2d,p)
 ****
 33  36  37 0
 6-311+G(2d,p)
 ****
 1  2  13  14  15  16  17  18  19  20  21  23  24  26 0
 3-21G
 ****
 27  28  34  35  38  39  40  41  42  43  44  45  46  47  48 0
 3-21G
 ****


