%nproc=1
%NoSave
%Mem=1900MB
#P OB98/GEN NMR

erre ene a

0 1
  C      -58.534     -20.589      73.535
  O      -57.991     -19.467      74.238
  P      -58.855     -18.114      74.246
  C      -57.846     -17.517      76.588
  O      -58.091     -17.122      75.247
  C      -56.473     -17.019      77.037
  O      -55.421     -17.712      76.324
  C      -56.232     -15.540      76.778
  O      -56.942     -14.730      77.700
  C      -54.716     -15.469      76.897
  O      -54.324     -15.417      78.278
  C      -54.284     -16.816      76.278
  N      -53.764     -16.682      74.924
  C      -52.454     -17.114      74.733
  O      -51.753     -17.558      75.641
  N      -51.966     -16.995      73.460
  C      -52.635     -16.473      72.392
  O      -52.150     -16.402      71.270
  C      -53.997     -15.989      72.666
  C      -54.492     -16.113      73.900
  O      -60.150     -18.580      75.057
  O      -59.119     -17.585      72.877
  H      -59.949     -19.222      75.759
  H      -54.865     -14.715      78.692
  H      -51.024     -17.314      73.298
  H      -54.547     -15.544      71.847
  H      -55.494     -15.758      74.122
  H      -53.506     -17.282      76.896
  H      -54.298     -14.586      76.404
  H      -56.536     -15.287      75.755
  H      -56.365     -17.238      78.108
  H      -57.875     -18.608      76.668
  H      -58.639     -17.117      77.226
  P      -58.265     -13.996      77.154
  C      -59.359     -13.109      79.356
  O      -58.601     -12.831      78.200
  O      -59.378     -15.110      77.441
  O      -58.169     -13.573      75.725
  H      -59.289     -15.519      78.318
  H      -59.187     -12.316      80.089
  H      -59.073     -14.065      79.802
  H      -60.422     -13.129      79.102
  H      -57.860     -21.417      73.610
  H      -58.670     -20.333      72.505
  H      -59.477     -20.856      73.964

 3  4  5  6  7  8  9  10  11  12  13  24  28  29  30  31  32 0
 6-311+G(2d,p)
 ****
 33  34 0
 6-311+G(2d,p)
 ****
 1  2  14  15  16  17  18  19  20  21  22  23  25  26  27 0
 3-21G
 ****
 35  36  37  38  39  40  41  42  43  44  45 0
 3-21G
 ****


