%nproc=1
%NoSave
%Mem=1900MB
#P OB98/GEN NMR

erre ene a

0 1
  C       28.999     -71.564      11.477
  O       27.701     -72.161      11.490
  P       27.082     -72.575      10.068
  C       28.237     -74.848       9.604
  O       27.042     -74.177       9.974
  C       28.103     -76.370       9.737
  O       27.630     -76.736      11.060
  C       27.136     -76.988       8.723
  O       27.637     -78.285       8.390
  C       25.859     -77.152       9.524
  O       25.000     -78.123       8.934
  C       26.434     -77.528      10.900
  N       25.491     -77.314      11.996
  C       24.730     -78.412      12.403
  O       24.815     -79.484      11.801
  N       23.860     -78.262      13.453
  C       23.722     -77.101      14.013
  N       22.840     -77.015      15.046
  C       24.461     -75.900      13.577
  C       25.321     -76.080      12.578
  O       28.227     -72.161       9.030
  O       25.790     -71.890       9.757
  H       24.815     -77.846       8.010
  H       27.844     -71.634       8.304
  H       24.298     -74.948      14.060
  H       25.911     -75.262      12.191
  H       26.731     -78.586      10.916
  H       25.321     -76.198       9.580
  H       27.015     -76.391       7.814
  H       29.099     -76.812       9.611
  H       22.358     -77.863      15.321
  H       29.063     -74.507      10.232
  H       22.653     -76.163      15.552
  H       28.500     -74.566       8.579
  P       27.659     -78.717       6.846
  C       29.602     -77.127       6.306
  O       29.172     -78.473       6.374
  O       26.908     -77.477       6.155
  O       27.032     -80.014       6.461
  H       26.792     -77.652       5.204
  H       30.675     -77.112       6.095
  H       29.422     -76.620       7.258
  H       29.080     -76.608       5.498
  H       29.297     -71.336      12.479
  H       28.972     -70.664      10.899
  H       29.701     -72.245      11.043

 3  4  5  6  7  8  9  10  11  12  13  21  23  27  28  29  30  32 0
 6-311+G(2d,p)
 ****
 34  35 0
 6-311+G(2d,p)
 ****
 1  2  14  15  16  17  18  19  20  22  24  25  26 0
 3-21G
 ****
 31  33  36  37  38  39  40  41  42  43  44  45  46 0
 3-21G
 ****


