%nproc=1
%NoSave
%Mem=1900MB
#P OB98/GEN NMR

erre ene a

0 1
  C     1159.089     748.437    -341.108
  O     1160.398     748.980    -341.144
  H     1158.525     748.929    -340.312
  H     1159.120     747.362    -340.911
  H     1158.577     748.628    -342.064
  P     1161.456     748.342    -342.160
  C     1162.821     750.503    -342.588
  O     1162.787     749.234    -341.955
  C     1164.010     751.318    -342.080
  O     1163.814     751.715    -340.699
  C     1165.349     750.562    -342.094
  O     1165.896     750.423    -343.393
  C     1166.172     751.505    -341.215
  O     1166.547     752.661    -341.965
  C     1165.136     751.876    -340.111
  N     1165.258     751.021    -338.912
  C     1164.804     751.577    -337.713
  O     1164.335     752.714    -337.675
  N     1164.908     750.834    -336.559
  C     1165.458     749.654    -336.611
  N     1165.600     748.983    -335.410
  C     1165.937     749.027    -337.855
  C     1165.814     749.750    -338.970
  O     1161.004     748.174    -343.575
  O     1161.898     746.957    -341.465
  H     1166.849     753.341    -341.343
  H     1162.556     746.517    -342.062
  H     1166.383     748.045    -337.831
  H     1166.149     749.375    -339.906
  H     1165.242     752.923    -339.819
  H     1167.096     751.042    -340.829
  H     1165.251     749.606    -341.584
  H     1164.059     752.239    -342.678
  H     1165.297     749.459    -334.577
  H     1161.876     751.016    -342.380
  H     1166.240     748.213    -335.341
  H     1162.936     750.380    -343.668
  P     1166.091     748.913    -343.953
  C     1165.768     749.940    -346.321
  O     1166.520     749.064    -345.483
  O     1164.595     748.365    -344.017
  O     1167.031     748.053    -343.148
  H     1164.376     747.875    -343.190
  H     1166.180     749.929    -347.309
  H     1165.811     750.934    -345.927
  H     1164.750     749.614    -346.355

 6  7  8  9  10  11  12  13  14  15  16  26  30  31  32  33  35 0
 6-311+G(2d,p)
 ****
 37  38 0
 6-311+G(2d,p)
 ****
 1  2  3  4  5  17  18  19  20  21  22  23  24  25 0
 3-21G
 ****
 27  28  29  34  36  39  40  41  42  43  44  45  46 0
 3-21G
 ****


