%nproc=1
%NoSave
%Mem=1900MB
#P OB98/GEN NMR

erre ene a

0 1
  C     -129.354     172.677     -20.450
  O     -130.072     171.772     -21.260
  H     -128.421     172.200     -20.136
  H     -129.942     172.919     -19.561
  H     -129.113     173.596     -20.993
  P     -131.223     172.340     -22.215
  C     -133.598     171.424     -21.782
  O     -132.599     172.357     -21.387
  C     -133.303     170.022     -21.250
  O     -133.102     170.076     -19.821
  C     -134.457     169.045     -21.498
  O     -134.420     168.399     -22.759
  C     -134.269     168.041     -20.363
  O     -133.373     166.983     -20.744
  C     -133.655     168.885     -19.240
  N     -135.660     167.754     -14.673
  C     -134.797     167.002     -15.450
  N     -134.463     165.788     -14.960
  N     -134.329     167.409     -16.603
  C     -134.833     168.597     -17.006
  C     -135.707     169.422     -16.332
  C     -136.162     169.000     -15.023
  O     -136.912     169.634     -14.289
  N     -136.028     170.534     -17.072
  C     -135.414     170.337     -18.224
  N     -134.614     169.219     -18.202
  O     -131.465     171.145     -23.259
  O     -130.892     173.612     -22.938
  H     -133.392     166.305     -20.043
  H     -131.735     171.513     -24.119
  H     -135.962     167.401     -13.782
  H     -135.481     170.991     -19.085
  H     -132.827     168.357     -18.752
  H     -135.219     167.570     -20.099
  H     -134.860     165.393     -14.124
  H     -135.423     169.542     -21.357
  H     -133.986     165.133     -15.584
  H     -132.367     169.656     -21.692
  H     -133.601     171.417     -22.874
  H     -134.585     171.759     -21.451
  P     -135.674     167.564     -23.291
  C     -135.230     164.975     -23.224
  O     -135.676     166.142     -22.567
  O     -135.262     167.212     -24.797
  O     -136.992     168.264     -23.220
  H     -135.685     167.829     -25.421
  H     -135.316     164.138     -22.562
  H     -134.207     165.098     -23.514
  H     -135.829     164.804     -24.094

 6  7  8  9  10  11  12  13  14  15  26  29  33  34 0
 6-311+G(2d,p)
 ****
 36  38  39  40  41 0
 6-311+G(2d,p)
 ****
 1  2  3  4  5  16  17  18  19  20  21  22  23  24  25 0
 3-21G
 ****
 27  28  30  31  32  35  37  42  43  44  45  46  47 0
 3-21G
 ****
 48  49 0
 3-21G
 ****


