%nproc=1
%NoSave
%Mem=1900MB
#P OB98/GEN NMR

erre ene a

0 1
  C       64.156    -417.611    -695.295
  O       63.666    -416.429    -694.694
  P       62.338    -416.543    -693.799
  C       60.079    -417.798    -694.136
  O       61.189    -417.141    -694.739
  C       59.150    -418.339    -695.225
  O       59.828    -419.341    -696.016
  C       57.903    -419.024    -694.678
  O       56.926    -418.081    -694.277
  C       57.473    -419.877    -695.866
  O       56.705    -419.106    -696.801
  C       58.834    -420.278    -696.473
  N       59.200    -421.658    -696.160
  C       58.570    -422.644    -696.914
  O       57.733    -422.389    -697.780
  N       58.907    -423.935    -696.612
  C       59.749    -424.333    -695.612
  O       59.966    -425.509    -695.354
  C       60.362    -423.247    -694.830
  C       60.061    -421.984    -695.130
  O       61.894    -415.022    -693.570
  O       62.522    -417.268    -692.507
  H       56.519    -419.690    -697.560
  H       61.509    -414.918    -692.678
  H       58.477    -424.665    -697.163
  H       61.035    -423.526    -694.030
  H       60.492    -421.173    -694.556
  H       58.804    -420.173    -697.564
  H       56.851    -420.723    -695.562
  H       58.175    -419.683    -693.840
  H       58.872    -417.510    -695.888
  H       59.533    -417.087    -693.507
  H       60.444    -418.612    -693.506
  P       55.679    -418.636    -693.424
  C       53.728    -420.143    -694.288
  O       54.583    -419.042    -694.514
  O       55.139    -417.279    -692.769
  O       56.068    -419.695    -692.451
  H       55.275    -416.510    -693.352
  H       53.464    -420.228    -693.232
  H       54.221    -421.060    -694.614
  H       52.813    -420.005    -694.871
  H       65.038    -417.386    -695.857
  H       63.411    -418.014    -695.948
  H       64.390    -418.327    -694.535

 3  4  5  6  7  8  9  10  11  12  13  23  28  29  30  31  32 0
 6-311+G(2d,p)
 ****
 33  34 0
 6-311+G(2d,p)
 ****
 1  2  14  15  16  17  18  19  20  21  22  24  25  26 0
 3-21G
 ****
 27  35  36  37  38  39  40  41  42  43  44  45 0
 3-21G
 ****


