%nproc=1
%NoSave
%Mem=1900MB
#P OB98/GEN NMR

erre ene a

0 1
  C      311.227    -712.662     383.438
  O      312.182    -711.599     383.568
  P      313.612    -711.904     384.242
  C      313.049    -710.165     386.122
  O      313.994    -710.667     385.195
  C      313.689    -709.123     387.042
  O      314.839    -709.687     387.725
  C      314.227    -707.898     386.319
  O      313.184    -706.995     385.955
  C      315.177    -707.321     387.362
  O      314.461    -706.525     388.332
  C      315.741    -708.602     388.017
  N      317.098    -708.900     387.569
  C      318.133    -708.289     388.288
  O      317.940    -707.479     389.196
  N      319.405    -708.612     387.879
  C      319.739    -709.406     386.817
  O      320.897    -709.638     386.503
  C      318.595    -709.964     386.057
  C      317.364    -709.683     386.467
  O      314.611    -711.682     382.999
  O      313.779    -713.259     384.831
  H      314.067    -705.785     387.850
  H      315.406    -712.234     383.131
  H      320.166    -708.196     388.401
  H      318.822    -710.580     385.205
  H      316.508    -710.088     385.916
  H      315.749    -708.493     389.112
  H      315.945    -706.670     386.921
  H      314.803    -708.206     385.436
  H      312.952    -708.831     387.801
  H      312.665    -710.995     386.729
  H      312.211    -709.727     385.571
  P      312.360    -707.360     384.622
  C      313.821    -705.766     383.141
  O      312.538    -706.102     383.663
  O      310.851    -707.263     385.157
  O      312.721    -708.693     384.043
  H      310.751    -706.579     385.847
  H      314.422    -706.659     382.973
  H      314.332    -705.104     383.859
  H      313.684    -705.238     382.197
  H      310.339    -712.289     382.973
  H      310.987    -713.047     384.407
  H      311.643    -713.444     382.837

 3  4  5  6  7  8  9  10  11  12  13  23  28  29  30  31  32 0
 6-311+G(2d,p)
 ****
 33  34 0
 6-311+G(2d,p)
 ****
 1  2  14  15  16  17  18  19  20  21  22  24  25  26 0
 3-21G
 ****
 27  35  36  37  38  39  40  41  42  43  44  45 0
 3-21G
 ****


