%nproc=1
%NoSave
%Mem=1900MB
#P OB98/GEN NMR

erre ene a

0 1
  C      192.264      61.712     -87.577
  O      191.675      60.706     -88.390
  P      192.541      59.396     -88.721
  C      193.392      57.412     -87.284
  O      193.020      58.783     -87.315
  C      194.044      57.047     -85.951
  O      195.425      57.501     -85.958
  C      193.371      57.667     -84.722
  O      193.511      56.732     -83.643
  C      194.231      58.884     -84.438
  O      194.092      59.341     -83.095
  C      195.610      58.335     -84.794
  N      200.318      60.091     -83.853
  C      199.671      58.983     -83.431
  N      198.418      58.583     -83.725
  C      197.819      59.464     -84.546
  C      198.339      60.652     -85.030
  C      199.658      60.961     -84.657
  N      200.323      62.082     -85.093
  N      197.413      61.298     -85.821
  C      196.353      60.518     -85.816
  N      196.560      59.386     -85.078
  O      193.884      60.011     -89.337
  O      191.902      58.433     -89.662
  H      194.384      58.627     -82.497
  H      193.940      59.799     -90.291
  H      200.239      58.329     -82.773
  H      195.419      60.725     -86.322
  H      196.024      57.708     -83.993
  H      193.942      59.703     -85.105
  H      192.317      57.920     -84.870
  H      194.066      55.953     -85.866
  H      194.111      57.227     -88.087
  H      201.307      62.162     -84.893
  H      199.910      62.635     -85.838
  H      192.510      56.789     -87.458
  P      192.419      56.807     -82.472
  C      189.852      56.454     -82.349
  O      190.985      56.669     -83.169
  O      192.474      58.340     -82.010
  O      192.684      55.879     -81.331
  H      192.210      58.414     -81.074
  H      188.990      56.946     -82.804
  H      189.997      56.853     -81.339
  H      189.655      55.381     -82.284
  H      191.570      62.516     -87.446
  H      193.151      62.079     -88.050
  H      192.514      61.298     -86.623

 3  4  5  6  7  8  9  10  11  12  22  25  29  30  31  32 0
 6-311+G(2d,p)
 ****
 33  36  37 0
 6-311+G(2d,p)
 ****
 1  2  13  14  15  16  17  18  19  20  21  23  24  26 0
 3-21G
 ****
 27  28  34  35  38  39  40  41  42  43  44  45  46  47  48 0
 3-21G
 ****


