%nproc=1
%NoSave
%Mem=1900MB
#P OB98/GEN NMR

erre ene a

0 1
  C       -2.881      -4.365       8.311
  O       -2.236      -4.743       7.112
  H       -2.879      -5.215       8.997
  H       -3.915      -4.080       8.106
  H       -2.353      -3.530       8.781
  P       -2.027      -3.603       6.005
  C       -4.244      -3.957       4.687
  O       -3.496      -3.129       5.564
  C       -5.228      -3.106       3.884
  O       -6.231      -2.576       4.792
  C       -4.567      -1.913       3.184
  O       -5.202      -1.704       1.919
  C       -4.875      -0.751       4.111
  O       -4.843       0.517       3.471
  C       -6.266      -1.144       4.619
  N       -6.615      -0.479       5.872
  C       -7.221       0.769       5.788
  O       -7.551       1.318       4.738
  N       -7.448       1.399       6.985
  C       -7.115       0.927       8.220
  O       -7.323       1.548       9.254
  C       -6.469      -0.394       8.244
  C       -6.251      -1.025       7.088
  O       -1.509      -4.418       4.728
  O       -1.109      -2.493       6.387
  H       -0.534      -4.473       4.731
  H       -4.992       1.203       4.154
  H       -7.889       2.305       6.941
  H       -6.182      -0.798       9.206
  H       -5.763      -1.993       7.071
  H       -7.026      -0.925       3.859
  H       -4.154      -0.731       4.937
  H       -3.494      -2.045       3.040
  H       -5.750      -3.748       3.165
  H       -4.800      -4.693       5.275
  H       -3.559      -4.482       4.013
  P       -4.584      -2.468       0.648
  C       -3.772      -0.199      -0.364
  O       -3.437      -1.504       0.072
  O       -5.777      -2.343      -0.406
  O       -4.154      -3.863       0.960
  H       -6.251      -1.495      -0.357
  H       -2.891       0.297      -0.714
  H       -4.193       0.352       0.451
  H       -4.486      -0.261      -1.159

 6  7  8  9  10  11  12  13  14  15  16  27  31  32  33  34  35 0
 6-311+G(2d,p)
 ****
 36  37 0
 6-311+G(2d,p)
 ****
 1  2  3  4  5  17  18  19  20  21  22  23  24  25 0
 3-21G
 ****
 26  28  29  30  38  39  40  41  42  43  44  45 0
 3-21G
 ****


