%nproc=1
%NoSave
%Mem=1900MB
#P OB98/GEN NMR

erre ene a

0 1
  C     -207.186    -252.162    -226.107
  O     -206.285    -251.076    -226.036
  H     -207.635    -252.311    -225.121
  H     -206.649    -253.072    -226.388
  H     -207.982    -251.960    -226.830
  P     -205.671    -250.560    -227.426
  C     -206.761    -248.221    -227.129
  O     -206.631    -249.381    -227.939
  C     -208.020    -248.314    -226.271
  O     -207.848    -249.305    -225.232
  C     -208.392    -247.017    -225.564
  O     -209.110    -246.137    -226.417
  C     -209.281    -247.550    -224.452
  O     -210.584    -247.876    -224.983
  C     -208.542    -248.830    -224.044
  N     -205.679    -251.150    -220.562
  C     -206.565    -251.680    -221.481
  N     -206.717    -253.023    -221.465
  N     -207.246    -250.963    -222.337
  C     -207.001    -249.635    -222.231
  C     -206.146    -248.990    -221.366
  C     -205.394    -249.796    -220.431
  O     -204.579    -249.378    -219.612
  N     -206.159    -247.634    -221.567
  C     -207.033    -247.457    -222.539
  N     -207.577    -248.640    -222.974
  O     -205.987    -251.758    -228.439
  O     -204.214    -250.240    -227.402
  H     -210.949    -247.051    -225.356
  H     -205.248    -251.841    -229.073
  H     -205.189    -251.745    -219.918
  H     -207.302    -246.499    -222.961
  H     -209.226    -249.624    -223.723
  H     -209.437    -246.827    -223.652
  H     -206.262    -253.627    -220.798
  H     -207.513    -246.528    -225.125
  H     -207.334    -253.438    -222.149
  H     -208.842    -248.653    -226.915
  H     -206.826    -247.337    -227.774
  H     -205.876    -248.134    -226.492
  P     -208.401    -244.752    -226.827
  C     -209.108    -245.258    -229.274
  O     -208.056    -244.889    -228.387
  O     -206.967    -244.863    -226.123
  O     -209.134    -243.523    -226.416
  H     -206.592    -243.969    -225.983
  H     -208.730    -245.309    -230.274
  H     -209.889    -244.528    -229.225
  H     -209.495    -246.214    -228.990

 6  7  8  9  10  11  12  13  14  15  26  29  33  34 0
 6-311+G(2d,p)
 ****
 36  38  39  40  41 0
 6-311+G(2d,p)
 ****
 1  2  3  4  5  16  17  18  19  20  21  22  23  24  25 0
 3-21G
 ****
 27  28  30  31  32  35  37  42  43  44  45  46  47 0
 3-21G
 ****
 48  49 0
 3-21G
 ****


