%nproc=1
%NoSave
%Mem=1900MB
#P OB98/GEN NMR

erre ene a

0 1
  C     -442.965     746.285     181.483
  O     -443.074     747.630     181.882
  H     -442.237     746.213     180.666
  H     -443.938     745.924     181.123
  H     -442.622     745.646     182.302
  P     -443.696     747.959     183.321
  C     -445.550     746.798     184.699
  O     -445.141     747.266     183.417
  C     -446.665     745.753     184.592
  O     -446.148     744.549     183.982
  C     -447.212     745.356     185.959
  O     -448.272     746.196     186.435
  C     -447.732     743.947     185.696
  O     -449.083     743.951     185.213
  C     -446.783     743.421     184.603
  N     -445.816     739.043     187.076
  C     -447.022     739.706     186.920
  N     -448.090     739.142     187.525
  N     -447.148     740.824     186.245
  C     -445.975     741.313     185.778
  C     -444.726     740.753     185.886
  C     -444.601     739.490     186.574
  O     -443.558     738.851     186.724
  N     -443.758     741.569     185.320
  C     -444.431     742.642     184.952
  N     -445.781     742.499     185.134
  O     -444.067     749.517     183.224
  O     -442.782     747.714     184.484
  H     -449.669     744.248     185.947
  H     -443.973     749.932     184.095
  H     -445.784     738.186     187.579
  H     -443.984     743.526     184.500
  H     -447.321     742.887     183.815
  H     -447.727     743.344     186.610
  H     -448.030     738.337     188.133
  H     -446.419     745.297     186.708
  H     -448.948     739.690     187.599
  H     -447.455     746.134     183.923
  H     -445.900     747.675     185.250
  H     -444.696     746.395     185.242
  P     -448.434     746.504     187.992
  C     -448.609     744.994     190.140
  O     -448.766     745.136     188.739
  O     -449.824     747.306     188.060
  O     -447.310     747.262     188.617
  H     -449.651     748.264     188.113
  H     -448.886     744.002     190.431
  H     -449.235     745.701     190.643
  H     -447.587     745.171     190.404

 6  7  8  9  10  11  12  13  14  15  26  29  33  34 0
 6-311+G(2d,p)
 ****
 36  38  39  40  41 0
 6-311+G(2d,p)
 ****
 1  2  3  4  5  16  17  18  19  20  21  22  23  24  25 0
 3-21G
 ****
 27  28  30  31  32  35  37  42  43  44  45  46  47 0
 3-21G
 ****
 48  49 0
 3-21G
 ****


