%nproc=1
%NoSave
%Mem=1900MB
#P OB98/GEN NMR

erre ene a

0 1
  C      -30.175     129.640    -270.672
  O      -28.889     129.155    -270.358
  H      -30.794     129.597    -269.769
  H      -30.644     129.016    -271.437
  H      -30.124     130.678    -271.012
  P      -27.781     129.064    -271.516
  C      -28.662     126.802    -272.353
  O      -28.453     128.170    -272.677
  C      -29.745     126.187    -273.242
  O      -29.379     126.355    -274.639
  C      -29.964     124.686    -272.999
  O      -31.364     124.414    -272.893
  C      -29.412     124.035    -274.258
  O      -29.977     122.753    -274.517
  C      -29.710     125.121    -275.298
  N      -28.954     124.923    -276.529
  C      -29.655     124.357    -277.598
  O      -30.845     124.060    -277.477
  N      -28.979     124.090    -278.760
  C      -27.706     124.323    -278.832
  N      -27.093     124.007    -280.007
  C      -26.922     124.892    -277.720
  C      -27.603     125.169    -276.607
  O      -26.438     128.598    -271.057
  O      -27.748     130.524    -272.169
  H      -30.891     122.878    -274.859
  H      -26.882     130.652    -272.621
  H      -25.861     125.062    -277.831
  H      -27.113     125.590    -275.735
  H      -30.781     125.140    -275.544
  H      -28.326     123.910    -274.152
  H      -29.464     124.318    -272.106
  H      -30.674     126.753    -273.101
  H      -27.667     123.612    -280.745
  H      -28.948     126.733    -271.298
  H      -26.105     124.121    -280.171
  H      -27.722     126.263    -272.509
  P      -31.971     124.375    -271.408
  C      -31.246     121.924    -270.946
  O      -31.143     123.290    -270.566
  O      -33.406     123.695    -271.612
  O      -32.087     125.723    -270.777
  H      -34.108     124.358    -271.470
  H      -30.642     121.326    -270.296
  H      -30.908     121.808    -271.954
  H      -32.266     121.610    -270.874

 6  7  8  9  10  11  12  13  14  15  16  26  30  31  32  33  35 0
 6-311+G(2d,p)
 ****
 37  38 0
 6-311+G(2d,p)
 ****
 1  2  3  4  5  17  18  19  20  21  22  23  24  25 0
 3-21G
 ****
 27  28  29  34  36  39  40  41  42  43  44  45  46 0
 3-21G
 ****


