%nproc=1
%NoSave
%Mem=1900MB
#P OB98/GEN NMR

erre ene a

0 1
  C      291.715     127.250    -108.042
  O      291.928     128.663    -108.081
  P      291.969     129.324    -109.544
  C      290.339     131.305    -109.163
  O      291.684     130.897    -109.373
  C      290.279     132.749    -108.657
  O      290.830     132.846    -107.307
  C      291.061     133.746    -109.531
  O      290.327     134.979    -109.507
  C      292.367     133.876    -108.772
  O      293.132     135.012    -109.158
  C      291.840     133.880    -107.342
  N      294.678     136.042    -103.692
  C      293.752     136.550    -104.537
  N      293.041     135.904    -105.485
  C      293.365     134.599    -105.517
  C      294.291     133.940    -104.725
  C      294.973     134.720    -103.771
  N      295.934     134.220    -102.925
  N      294.361     132.598    -105.070
  C      293.541     132.482    -106.102
  N      292.858     133.638    -106.348
  O      290.645     128.766    -110.246
  O      293.206     128.995    -110.312
  H      292.568     135.809    -109.143
  H      290.858     128.013    -110.831
  H      293.557     137.614    -104.434
  H      293.406     131.587    -106.693
  H      291.355     134.825    -107.082
  H      292.987     132.992    -108.956
  H      291.179     133.421    -110.566
  H      289.226     133.053    -108.599
  H      289.859     130.647    -108.435
  H      296.372     134.859    -102.282
  H      296.187     133.242    -102.962
  H      289.783     131.184    -110.098
  P      289.697     135.531    -110.875
  C      287.566     136.086    -109.554
  O      288.580     136.586    -110.410
  O      288.782     134.279    -111.299
  O      290.665     135.966    -111.918
  H      288.226     133.982    -110.561
  H      286.930     136.918    -109.247
  H      288.011     135.633    -108.663
  H      286.960     135.346    -110.090
  H      291.706     126.919    -107.025
  H      292.503     126.756    -108.571
  H      290.777     127.018    -108.501

 3  4  5  6  7  8  9  10  11  12  22  25  29  30  31  32 0
 6-311+G(2d,p)
 ****
 33  36  37 0
 6-311+G(2d,p)
 ****
 1  2  13  14  15  16  17  18  19  20  21  23  24  26 0
 3-21G
 ****
 27  28  34  35  38  39  40  41  42  43  44  45  46  47  48 0
 3-21G
 ****


