%nproc=1
%NoSave
%Mem=1900MB
#P OB98/GEN NMR

erre ene a

0 1
  C      176.957    -420.958     327.088
  O      176.059    -419.960     327.589
  P      176.653    -418.727     328.424
  C      176.743    -419.676     330.821
  O      177.489    -419.292     329.673
  C      177.638    -419.738     332.070
  O      176.815    -419.686     333.268
  C      178.487    -421.019     332.134
  O      179.873    -420.769     332.363
  C      177.780    -421.858     333.189
  O      178.630    -422.824     333.793
  C      177.176    -420.791     334.117
  N      176.016    -421.313     334.865
  C      176.289    -422.275     335.825
  O      177.409    -422.744     336.019
  N      175.203    -422.727     336.540
  C      173.907    -422.376     336.329
  O      172.962    -422.848     336.956
  C      173.673    -421.401     335.246
  C      174.731    -420.920     334.580
  O      175.681    -417.639     328.752
  O      177.812    -418.166     327.464
  H      178.073    -423.432     334.329
  H      177.810    -417.193     327.515
  H      175.390    -423.417     337.256
  H      172.658    -421.120     335.036
  H      174.588    -420.210     333.767
  H      177.909    -420.449     334.850
  H      176.963    -422.410     332.708
  H      178.466    -421.556     331.177
  H      178.286    -418.860     332.050
  H      176.302    -420.661     330.649
  H      175.900    -418.983     330.959
  P      181.055    -421.402     331.490
  C      181.456    -423.600     332.814
  O      180.985    -423.000     331.626
  O      182.415    -420.820     331.722
  O      180.590    -421.135     329.980
  H      181.362    -420.875     329.446
  H      181.682    -424.652     332.608
  H      180.676    -423.548     333.579
  H      182.361    -423.106     333.182
  H      176.402    -421.704     326.558
  H      177.476    -421.413     327.905
  H      177.664    -420.502     326.426

 3  4  5  6  7  8  9  10  11  12  13  23  28  29  30  31  32 0
 6-311+G(2d,p)
 ****
 33  34 0
 6-311+G(2d,p)
 ****
 1  2  14  15  16  17  18  19  20  21  22  24  25  26  27 0
 3-21G
 ****
 35  36  37  38  39  40  41  42  43  44  45 0
 3-21G
 ****


