%nproc=1
%NoSave
%Mem=1900MB
#P OB98/GEN NMR

erre ene a

0 1
  C     -693.745     822.274    -139.627
  O     -693.141     823.426    -140.177
  H     -694.823     822.328    -139.825
  H     -693.598     822.246    -138.544
  H     -693.349     821.368    -140.087
  P     -691.534     823.553    -140.109
  C     -690.676     823.484    -142.537
  O     -690.957     822.733    -141.364
  C     -691.368     822.859    -143.750
  O     -692.805     822.846    -143.519
  C     -691.118     823.630    -145.052
  O     -690.987     822.686    -146.124
  C     -692.394     824.436    -145.247
  O     -692.645     824.741    -146.615
  C     -693.449     823.514    -144.622
  N     -698.129     824.953    -145.862
  C     -697.238     824.131    -146.529
  N     -697.646     823.631    -147.719
  N     -696.047     823.822    -146.074
  C     -695.775     824.376    -144.867
  C     -696.565     825.208    -144.114
  C     -697.872     825.554    -144.638
  O     -698.693     826.284    -144.095
  N     -695.918     825.593    -142.961
  C     -694.747     824.990    -143.019
  N     -694.611     824.252    -144.160
  O     -690.921     823.191    -138.796
  O     -691.253     825.072    -140.498
  H     -693.544     825.135    -146.656
  H     -691.085     825.617    -139.709
  H     -699.016     825.172    -146.265
  H     -693.967     825.078    -142.270
  H     -693.807     822.752    -145.327
  H     -692.318     825.376    -144.687
  H     -698.549     823.811    -148.121
  H     -690.237     824.253    -145.019
  H     -697.018     823.006    -148.216
  H     -691.045     821.819    -143.839
  H     -689.593     823.493    -142.687
  H     -691.023     824.513    -142.398
  P     -689.514     822.198    -146.550
  C     -689.607     819.628    -146.379
  O     -689.185     820.839    -145.765
  O     -688.453     823.242    -146.496
  O     -689.743     821.674    -148.054
  H     -688.922     821.818    -148.553
  H     -689.330     818.800    -145.761
  H     -689.138     819.531    -147.336
  H     -690.670     819.642    -146.502

 6  7  8  9  10  11  12  13  14  15  26  29  33  34 0
 6-311+G(2d,p)
 ****
 36  38  39  40  41 0
 6-311+G(2d,p)
 ****
 1  2  3  4  5  16  17  18  19  20  21  22  23  24  25 0
 3-21G
 ****
 27  28  30  31  32  35  37  42  43  44  45  46  47 0
 3-21G
 ****
 48  49 0
 3-21G
 ****


