%nproc=1
%NoSave
%Mem=1900MB
#P OB98/GEN NMR

erre ene a

0 1
  C       60.243     -47.146       6.023
  O       60.935     -45.953       6.348
  P       60.157     -44.566       6.120
  C       61.383     -43.823       3.947
  O       60.175     -44.277       4.544
  C       61.085     -42.724       2.929
  O       60.491     -43.291       1.746
  C       60.102     -41.665       3.410
  O       60.719     -40.765       4.315
  C       59.685     -41.047       2.080
  O       60.696     -40.134       1.622
  C       59.630     -42.278       1.159
  N       55.225     -41.938      -1.426
  C       56.372     -41.227      -1.501
  N       57.492     -41.363      -0.764
  C       57.358     -42.360       0.124
  C       56.245     -43.155       0.332
  C       55.137     -42.918      -0.497
  N       53.968     -43.642      -0.413
  N       56.469     -44.059       1.349
  C       57.703     -43.820       1.741
  N       58.287     -42.813       1.023
  O       61.171     -43.480       6.707
  O       58.811     -44.486       6.768
  H       60.504     -39.936       0.684
  H       60.688     -42.737       7.118
  H       56.392     -40.445      -2.256
  H       58.215     -44.351       2.533
  H       60.005     -42.068       0.152
  H       58.744     -40.492       2.139
  H       59.236     -42.137       3.891
  H       62.038     -42.258       2.646
  H       61.873     -44.656       3.433
  H       53.175     -43.310      -0.940
  H       53.855     -44.273       0.370
  H       62.053     -43.459       4.732
  P       59.760     -39.950       5.311
  C       59.014     -37.901       3.955
  O       58.710     -39.232       4.329
  O       60.706     -38.742       5.755
  O       59.171     -40.757       6.415
  H       61.136     -38.315       4.994
  H       58.254     -37.554       3.250
  H       59.994     -37.857       3.472
  H       59.002     -37.252       4.835
  H       60.872     -47.989       6.221
  H       59.979     -47.134       4.986
  H       59.355     -47.216       6.616

 3  4  5  6  7  8  9  10  11  12  22  25  29  30  31  32 0
 6-311+G(2d,p)
 ****
 33  36  37 0
 6-311+G(2d,p)
 ****
 1  2  13  14  15  16  17  18  19  20  21  23  24  26 0
 3-21G
 ****
 27  28  34  35  38  39  40  41  42  43  44  45  46  47  48 0
 3-21G
 ****


