%nproc=1
%NoSave
%Mem=1900MB
#P OB98/GEN NMR

erre ene a

0 1
  C     1110.431     -43.555    -310.229
  O     1110.966     -43.580    -311.535
  H     1109.338     -43.428    -310.306
  H     1110.835     -42.703    -309.674
  H     1110.640     -44.483    -309.697
  P     1112.522     -43.903    -311.719
  C     1112.446     -42.869    -314.088
  O     1113.083     -42.872    -312.816
  C     1112.566     -41.489    -314.721
  O     1111.736     -40.538    -314.014
  C     1113.972     -40.908    -314.681
  O     1114.794     -41.508    -315.667
  C     1113.684     -39.431    -314.908
  O     1113.489     -39.162    -316.300
  C     1112.370     -39.253    -314.118
  N     1112.591     -38.654    -312.784
  C     1112.342     -37.291    -312.672
  O     1111.998     -36.582    -313.619
  N     1112.556     -36.760    -311.431
  C     1113.065     -37.408    -310.349
  O     1113.310     -36.860    -309.278
  C     1113.331     -38.841    -310.532
  C     1113.086     -39.395    -311.739
  O     1112.869     -45.332    -311.967
  O     1113.186     -43.363    -310.364
  H     1114.251     -39.559    -316.769
  H     1113.413     -44.122    -309.790
  H     1112.390     -35.768    -311.315
  H     1113.727     -39.394    -309.701
  H     1113.282     -40.440    -311.889
  H     1111.685     -38.598    -314.673
  H     1114.508     -38.793    -314.571
  H     1114.397     -41.041    -313.684
  H     1112.189     -41.544    -315.755
  H     1111.385     -43.111    -313.943
  H     1112.908     -43.623    -314.720
  P     1116.334     -41.813    -315.339
  C     1116.749     -41.640    -317.870
  O     1117.209     -41.279    -316.577
  O     1116.632     -43.208    -314.903
  O     1116.685     -40.773    -314.169
  H     1116.963     -41.261    -313.382
  H     1117.406     -41.231    -318.609
  H     1115.762     -41.255    -318.018
  H     1116.733     -42.706    -317.958

 6  7  8  9  10  11  12  13  14  15  16  26  31  32  33  34  35 0
 6-311+G(2d,p)
 ****
 36  37 0
 6-311+G(2d,p)
 ****
 1  2  3  4  5  17  18  19  20  21  22  23  24  25 0
 3-21G
 ****
 27  28  29  30  38  39  40  41  42  43  44  45 0
 3-21G
 ****


