%nproc=1
%NoSave
%Mem=1900MB
#P OB98/GEN NMR

erre ene a

0 1
  C     -366.291     367.100    -243.112
  O     -366.123     366.220    -241.990
  P     -364.926     365.157    -242.039
  C     -362.369     365.558    -242.324
  O     -363.563     365.897    -241.634
  C     -361.157     366.216    -241.661
  O     -361.250     367.655    -241.679
  C     -360.985     365.844    -240.193
  O     -360.337     364.588    -240.047
  C     -360.081     366.966    -239.709
  O     -358.716     366.690    -240.083
  C     -360.612     368.172    -240.491
  N     -364.567     371.406    -240.875
  C     -363.795     370.809    -241.810
  N     -362.751     369.975    -241.632
  C     -362.534     369.763    -240.323
  C     -363.232     370.303    -239.257
  C     -364.297     371.164    -239.569
  N     -365.079     371.766    -238.613
  N     -362.714     369.863    -238.056
  C     -361.726     369.060    -238.393
  N     -361.571     368.971    -239.751
  O     -364.745     364.888    -243.609
  O     -365.209     363.891    -241.299
  H     -358.677     366.714    -241.059
  H     -364.485     363.962    -243.758
  H     -364.055     371.031    -242.845
  H     -361.101     368.517    -237.695
  H     -359.808     368.846    -240.812
  H     -360.094     367.076    -238.621
  H     -361.947     365.880    -239.663
  H     -360.260     365.921    -242.221
  H     -362.442     365.869    -243.369
  H     -365.842     372.352    -238.915
  H     -364.897     371.572    -237.640
  H     -362.263     364.466    -242.337
  P     -361.252     363.274    -240.164
  C     -362.576     362.188    -242.118
  O     -361.594     363.122    -241.723
  O     -362.633     363.738    -239.504
  O     -360.683     362.071    -239.496
  H     -363.080     362.972    -239.090
  H     -362.896     362.423    -243.136
  H     -363.447     362.225    -241.457
  H     -362.149     361.180    -242.107
  H     -367.124     367.748    -242.936
  H     -366.469     366.522    -243.995
  H     -365.405     367.686    -243.242

 3  4  5  6  7  8  9  10  11  12  22  25  29  30  31  32 0
 6-311+G(2d,p)
 ****
 33  36  37 0
 6-311+G(2d,p)
 ****
 1  2  13  14  15  16  17  18  19  20  21  23  24  26 0
 3-21G
 ****
 27  28  34  35  38  39  40  41  42  43  44  45  46  47  48 0
 3-21G
 ****


