%nproc=1
%NoSave
%Mem=1900MB
#P OB98/GEN NMR

erre ene a

0 1
  C     -443.340    -944.455    1051.743
  O     -443.695    -943.693    1052.879
  P     -444.565    -942.351    1052.752
  C     -446.604    -943.853    1053.238
  O     -445.908    -942.664    1053.576
  C     -447.792    -944.073    1054.165
  O     -447.291    -944.284    1055.507
  C     -448.780    -942.906    1054.276
  O     -449.779    -942.876    1053.245
  C     -449.436    -943.213    1055.609
  O     -450.429    -944.245    1055.425
  C     -448.261    -943.736    1056.423
  N     -448.671    -941.005    1060.744
  C     -449.442    -941.993    1060.224
  N     -449.266    -942.669    1059.066
  C     -448.175    -942.254    1058.423
  C     -447.290    -941.261    1058.853
  C     -447.568    -940.625    1060.068
  N     -446.778    -939.632    1060.597
  N     -446.258    -941.099    1057.920
  C     -446.512    -941.986    1056.989
  N     -447.658    -942.723    1057.257
  O     -444.749    -941.872    1051.352
  O     -443.799    -941.304    1053.674
  H     -450.860    -944.397    1056.289
  H     -444.102    -940.397    1053.463
  H     -450.292    -942.296    1060.804
  H     -445.928    -942.140    1056.096
  H     -448.551    -944.586    1057.112
  H     -449.967    -942.361    1056.017
  H     -448.257    -941.943    1054.346
  H     -448.318    -945.013    1053.853
  H     -445.915    -944.701    1053.332
  H     -446.988    -939.315    1061.571
  H     -445.878    -939.449    1060.182
  H     -446.918    -943.809    1052.178
  P     -450.352    -941.436    1052.841
  C     -448.851    -941.425    1050.683
  O     -450.138    -941.317    1051.255
  O     -449.806    -940.306    1053.630
  O     -451.936    -941.641    1052.982
  H     -452.344    -942.266    1052.344
  H     -448.946    -941.477    1049.617
  H     -448.340    -942.321    1051.034
  H     -448.259    -940.530    1050.948
  H     -442.764    -945.303    1052.048
  H     -442.760    -943.852    1051.076
  H     -444.227    -944.787    1051.245

 3  4  5  6  7  8  9  10  11  12  22  25  29  30  31  32 0
 6-311+G(2d,p)
 ****
 33  36  37 0
 6-311+G(2d,p)
 ****
 1  2  13  14  15  16  17  18  19  20  21  23  24  26 0
 3-21G
 ****
 27  28  34  35  38  39  40  41  42  43  44  45  46  47  48 0
 3-21G
 ****


