%nproc=1
%NoSave
%Mem=1900MB
#P OB98/GEN NMR

erre ene a

0 1
  C      756.743    -206.185     368.402
  O      756.169    -204.900     368.551
  H      756.766    -206.672     369.381
  H      757.766    -206.096     368.023
  H      756.144    -206.788     367.715
  P      756.029    -204.020     367.217
  C      753.484    -204.568     367.093
  O      754.745    -204.588     366.442
  C      752.539    -205.601     366.466
  O      753.045    -206.936     366.769
  C      751.102    -205.543     367.010
  O      750.218    -206.006     365.971
  C      751.150    -206.570     368.130
  O      749.854    -206.917     368.558
  C      751.987    -207.649     367.445
  N      751.637    -212.457     369.170
  C      750.972    -211.800     368.184
  N      751.128    -210.523     367.778
  C      752.103    -209.912     368.481
  C      752.873    -210.455     369.500
  C      752.602    -211.793     369.842
  N      753.268    -212.459     370.846
  N      753.773    -209.521     369.980
  C      753.546    -208.435     369.262
  N      752.547    -208.623     368.351
  O      757.263    -204.512     366.322
  O      756.040    -202.542     367.417
  H      749.895    -207.557     369.305
  H      758.021    -203.911     366.443
  H      750.216    -212.377     367.668
  H      754.072    -207.492     369.368
  H      751.407    -208.194     366.687
  H      751.672    -206.168     369.002
  H      750.798    -204.543     367.326
  H      752.562    -205.495     365.376
  H      753.053    -203.564     366.987
  H      753.617    -204.794     368.156
  H      753.007    -213.413     371.045
  H      753.981    -211.972     371.370
  P      749.480    -204.925     365.031
  C      750.838    -205.668     362.920
  O      750.419    -204.604     363.770
  O      749.628    -203.581     365.901
  O      748.042    -205.209     364.727
  H      748.885    -202.979     365.694
  H      751.453    -205.277     362.137
  H      749.979    -206.144     362.495
  H      751.396    -206.381     363.490

 6  7  8  9  10  11  12  13  14  15  25  28  32  33  34  35 0
 6-311+G(2d,p)
 ****
 36  37  40 0
 6-311+G(2d,p)
 ****
 1  2  3  4  5  16  17  18  19  20  21  22  23  24 0
 3-21G
 ****
 26  27  29  30  31  38  39 41  42  43  44  45  46  47  48 0
 3-21G
 ****


