%nproc=1
%NoSave
%Mem=1900MB
#P OB98/GEN NMR

erre ene a

0 1
  C       35.447      63.479      53.484
  O       36.520      63.212      54.364
  H       35.211      64.545      53.533
  H       34.561      62.908      53.778
  H       35.731      63.226      52.460
  P       36.987      61.683      54.483
  C       35.406      60.739      56.287
  O       35.652      60.888      54.894
  C       35.041      59.290      56.611
  O       33.786      58.972      55.952
  C       36.082      58.273      56.132
  O       36.157      57.203      57.075
  C       35.488      57.755      54.834
  O       35.992      56.470      54.483
  C       33.996      57.795      55.155
  N       32.430      55.045      51.169
  C       33.077      54.706      52.303
  N       33.436      55.504      53.330
  C       33.006      56.762      53.125
  C       32.336      57.257      52.022
  C       32.053      56.335      50.999
  N       31.425      56.676      49.825
  N       32.110      58.612      52.164
  C       32.626      58.927      53.338
  N       33.196      57.843      53.945
  O       38.168      61.435      55.359
  O       37.173      61.272      52.948
  H       35.590      56.202      53.630
  H       36.417      61.566      52.405
  H       33.351      53.658      52.396
  H       32.626      59.917      53.780
  H       33.665      56.920      55.730
  H       35.727      58.443      54.016
  H       37.071      58.708      55.986
  H       34.865      59.203      57.689
  H       34.591      61.400      56.598
  H       31.260      55.950      49.146
  H       31.130      57.630      49.680
  H       36.315      61.032      56.823
  P       37.482      57.037      57.961
  C       38.743      55.530      56.295
  O       38.728      56.773      56.982
  O       37.376      56.095      59.113
  O       37.757      58.533      58.469
  H       38.028      58.507      59.408
  H       39.616      55.473      55.679
  H       37.869      55.450      55.683
  H       38.755      54.730      57.005

 6  7  8  9  10  11  12  13  14  15  25  28  32  33  34  35 0
 6-311+G(2d,p)
 ****
 36  39  40 0
 6-311+G(2d,p)
 ****
 1  2  3  4  5  16  17  18  19  20  21  22  23  24 0
 3-21G
 ****
 26  27  29  30  31  37  38  41  42  43  44  45  46  47 0
 3-21G
 ****
 48 0
 3-21G
 ****


