%nproc=1
%NoSave
%Mem=1900MB
#P OB98/GEN NMR

erre ene a

0 1
  C      312.343    -323.411     166.043
  O      312.133    -324.199     167.225
  P      313.324    -325.134     167.765
  C      313.118    -324.330     170.246
  O      313.093    -325.411     169.326
  C      312.535    -324.766     171.595
  O      311.126    -325.069     171.464
  C      313.159    -326.029     172.171
  O      314.431    -325.778     172.744
  C      312.112    -326.449     173.189
  O      312.269    -325.725     174.420
  C      310.802    -326.038     172.480
  N      310.082    -327.179     171.922
  C      309.365    -327.963     172.821
  O      309.362    -327.767     174.036
  N      308.666    -329.006     172.275
  C      308.676    -329.379     170.960
  O      308.042    -330.339     170.536
  C      309.512    -328.565     170.071
  C      310.176    -327.526     170.584
  O      314.559    -324.113     167.791
  O      313.642    -326.329     166.925
  H      311.413    -325.790     174.893
  H      315.395    -324.604     167.668
  H      308.113    -329.569     172.903
  H      309.572    -328.841     169.029
  H      310.802    -326.910     169.945
  H      310.139    -325.523     173.184
  H      312.166    -327.513     173.437
  H      313.233    -326.798     171.392
  H      312.639    -323.924     172.302
  H      312.521    -323.506     169.850
  H      314.153    -323.988     170.368
  P      315.691    -326.505     172.057
  C      317.344    -324.506     172.407
  O      316.984    -325.835     172.729
  O      315.625    -325.897     170.580
  O      315.612    -327.998     172.119
  H      315.300    -324.978     170.572
  H      316.464    -323.889     172.213
  H      317.997    -324.518     171.526
  H      317.897    -324.082     173.253
  H      311.457    -322.852     165.825
  H      312.570    -324.056     165.220
  H      313.159    -322.738     166.204

 3  4  5  6  7  8  9  10  11  12  13  23  28  29  30  31  32 0
 6-311+G(2d,p)
 ****
 33  34 0
 6-311+G(2d,p)
 ****
 1  2  14  15  16  17  18  19  20  21  22  24  25  26 0
 3-21G
 ****
 27  35  36  37  38  39  40  41  42  43  44  45 0
 3-21G
 ****


