%nproc=1
%NoSave
%Mem=1900MB
#P OB98/GEN NMR

erre ene a

0 1
  C      -54.555      19.795     106.355
  O      -55.239      20.023     105.133
  P      -54.378      19.992     103.779
  C      -56.508      20.268     102.337
  O      -55.231      20.791     102.678
  C      -57.268      21.235     101.436
  O      -57.459      22.489     102.148
  C      -56.557      21.559     100.112
  O      -57.516      21.542      99.045
  C      -56.100      22.995     100.298
  O      -55.946      23.671      99.055
  C      -57.224      23.533     101.182
  N      -58.796      28.288     101.842
  C      -59.467      27.201     101.317
  N      -60.714      27.433     100.849
  N      -58.963      25.998     101.250
  C      -57.720      25.907     101.783
  C      -56.956      26.907     102.341
  C      -57.505      28.247     102.353
  O      -56.926      29.266     102.721
  N      -55.753      26.425     102.788
  C      -55.784      25.138     102.500
  N      -56.938      24.784     101.845
  O      -54.497      18.464     103.317
  O      -52.954      20.405     103.919
  H      -55.512      23.050      98.442
  H      -53.604      18.081     103.211
  H      -59.225      29.196     101.853
  H      -54.989      24.434     102.715
  H      -58.142      23.669     100.594
  H      -55.136      23.001     100.821
  H      -61.176      28.326     100.902
  H      -55.726      20.886      99.873
  H      -61.231      26.644     100.480
  H      -58.268      20.822     101.246
  H      -57.084      20.101     103.253
  H      -56.371      19.308     101.827
  P      -57.085      20.732      97.726
  C      -59.476      20.015      96.982
  O      -58.339      20.819      96.734
  O      -57.086      19.207      98.211
  O      -55.770      21.153      97.159
  H      -56.493      18.672      97.653
  H      -59.427      19.518      97.955
  H      -59.550      19.254      96.201
  H      -60.369      20.644      96.952
  H      -55.250      19.845     107.167
  H      -53.800      20.541     106.486
  H      -54.100      18.827     106.334

 3  4  5  6  7  8  9  10  11  12  23  26  30  31  33  0
 6-311+G(2d,p)
 ****
 35  36  37  38 0
 6-311+G(2d,p)
 ****
 1  2  13  14  15  16  17  18  19  20  21  22  24  25  27  28  29 0
 3-21G
 ****
 32  34  39  40  41  42  43  44  45  46  47  48  49 0
 3-21G
 ****


