%nproc=1
%NoSave
%Mem=1900MB
#P OB98/GEN NMR

erre ene a

0 1
  C      260.340     433.869    -639.230
  O      261.113     435.064    -639.350
  P      261.232     436.189    -638.227
  C      259.813     438.008    -639.482
  O      261.071     437.620    -638.915
  C      259.491     439.508    -639.267
  O      259.447     439.775    -637.843
  C      260.600     440.379    -639.844
  O      260.594     440.717    -641.228
  C      260.645     441.603    -638.922
  O      259.856     442.693    -639.398
  C      260.078     441.062    -637.602
  N      263.561     443.383    -634.670
  C      262.801     443.919    -635.695
  N      263.023     445.196    -636.026
  N      261.915     443.226    -636.358
  C      261.845     441.912    -635.990
  C      262.573     441.283    -635.000
  C      263.523     442.067    -634.237
  O      264.215     441.663    -633.308
  N      262.262     439.935    -634.927
  C      261.371     439.754    -635.881
  N      261.079     440.942    -636.549
  O      262.369     436.025    -637.268
  O      259.857     436.021    -637.386
  H      259.962     443.438    -638.779
  H      260.066     436.255    -636.449
  H      264.226     443.973    -634.176
  H      260.904     438.818    -636.128
  H      259.293     441.726    -637.202
  H      261.671     441.983    -638.831
  H      263.780     445.754    -635.643
  H      261.547     439.863    -639.676
  H      262.619     445.525    -636.915
  H      258.498     439.747    -639.645
  H      259.046     437.372    -639.023
  H      259.798     437.783    -640.563
  P      261.308     439.879    -642.395
  C      263.412     439.180    -641.109
  O      262.894     439.964    -642.163
  O      261.097     440.789    -643.700
  O      260.771     438.499    -642.609
  H      261.264     440.260    -644.501
  H      264.418     439.543    -640.850
  H      263.484     438.130    -641.432
  H      262.779     439.244    -640.214
  H      260.436     433.291    -640.125
  H      259.312     434.123    -639.078
  H      260.693     433.298    -638.397

 3  4  5  6  7  8  9  10  11  12  23  26  30  31 0
 6-311+G(2d,p)
 ****
 33  35  36  37  38 0
 6-311+G(2d,p)
 ****
 1  2  13  14  15  16  17  18  19  20  21  22  24  25 0
 3-21G
 ****
 27  28  29  32  34  39  40  41  42  43  44  45  46  47  48  49 0
 3-21G
 ****


