%nproc=1
%NoSave
%Mem=1900MB
#P OB98/GEN NMR

erre ene a

0 1
  C      363.921     157.424    -292.219
  O      364.566     156.192    -292.551
  P      364.181     155.466    -293.926
  C      365.052     157.134    -295.691
  O      365.263     155.886    -295.037
  C      365.674     157.126    -297.086
  O      365.166     158.201    -297.901
  C      367.184     157.311    -297.070
  O      367.837     156.127    -296.639
  C      367.451     157.713    -298.514
  O      367.521     156.561    -299.365
  C      366.197     158.548    -298.854
  N      366.444     159.981    -298.872
  C      366.849     160.516    -300.102
  O      367.014     159.784    -301.078
  N      367.069     161.871    -300.186
  C      366.913     162.617    -299.137
  N      367.140     163.952    -299.280
  C      366.498     162.089    -297.823
  C      366.291     160.776    -297.761
  O      362.756     155.594    -294.349
  O      364.566     153.932    -293.637
  H      368.174     155.959    -298.953
  H      363.972     153.355    -294.159
  H      366.371     162.753    -296.980
  H      365.990     160.304    -296.833
  H      365.810     158.263    -299.843
  H      368.398     158.250    -298.617
  H      367.450     158.143    -296.400
  H      365.421     156.172    -297.570
  H      367.435     164.289    -300.188
  H      365.486     157.938    -295.090
  H      366.996     164.622    -298.539
  H      363.974     157.324    -295.740
  P      368.889     156.251    -295.440
  C      367.481     156.945    -293.374
  O      368.122     155.898    -294.079
  O      369.123     157.836    -295.330
  O      370.179     155.531    -295.660
  H      370.043     158.012    -295.062
  H      366.763     156.502    -292.674
  H      366.945     157.611    -294.054
  H      368.220     157.512    -292.808
  H      364.287     157.775    -291.277
  H      362.864     157.268    -292.156
  H      364.129     158.151    -292.976

 3  4  5  6  7  8  9  10  11  12  13  23  27  28  29  30  32 0
 6-311+G(2d,p)
 ****
 34  35 0
 6-311+G(2d,p)
 ****
 1  2  14  15  16  17  18  19  20  21  22  24  25  26 0
 3-21G
 ****
 31  33  36  37  38  39  40  41  42  43  44  45  46 0
 3-21G
 ****


