%nproc=1
%NoSave
%Mem=1900MB
#P OB98/GEN NMR

erre ene a

0 1
  C      404.489     187.686      66.306
  O      404.819     188.441      65.153
  P      406.184     189.281      65.170
  C      405.459     191.709      64.587
  O      406.031     190.493      64.122
  C      405.742     192.851      63.604
  O      407.165     193.143      63.588
  C      405.328     192.538      62.156
  O      404.880     193.743      61.517
  C      406.630     192.130      61.499
  O      406.579     192.313      60.085
  C      407.615     193.048      62.226
  N      411.159     191.006      59.247
  C      409.977     191.629      58.900
  N      409.658     191.631      57.583
  N      409.185     192.207      59.763
  C      409.626     192.120      61.040
  C      410.785     191.542      61.507
  C      411.647     190.895      60.543
  O      412.698     190.301      60.786
  N      410.914     191.680      62.867
  C      409.811     192.312      63.233
  N      408.980     192.563      62.171
  O      407.220     188.296      64.445
  O      406.669     189.663      66.527
  H      406.543     193.278      59.926
  H      407.820     187.902      65.112
  H      411.736     190.563      58.547
  H      409.552     192.579      64.253
  H      407.607     194.062      61.801
  H      406.840     191.074      61.706
  H      410.191     191.141      56.882
  H      404.551     191.766      62.067
  H      408.777     192.041      57.309
  H      405.237     193.755      63.966
  H      405.891     191.959      65.557
  H      404.380     191.580      64.713
  P      403.304     194.024      61.577
  C      402.941     193.810      59.000
  O      402.914     194.646      60.149
  O      403.185     195.269      62.576
  O      402.488     192.857      62.024
  H      402.305     195.286      62.999
  H      401.931     193.744      58.595
  H      403.308     192.803      59.231
  H      403.599     194.263      58.250
  H      403.558     187.183      66.148
  H      404.403     188.340      67.148
  H      405.257     186.965      66.492

 3  4  5  6  7  8  9  10  11  12  23  26  30  31 0
 6-311+G(2d,p)
 ****
 33  35  36  37  38 0
 6-311+G(2d,p)
 ****
 1  2  13  14  15  16  17  18  19  20  21  22  24  25 0
 3-21G
 ****
 27  28  29  32  34  39  40  41  42  43  44  45  46  47  48  49 0
 3-21G
 ****


