%nproc=1
%NoSave
%Mem=1900MB
#P OB98/GEN NMR

erre ene a

0 1
  C      -31.961    -344.823    -138.443
  O      -31.161    -344.540    -139.599
  P      -30.305    -345.737    -140.231
  C      -29.301    -346.258    -142.573
  O      -29.791    -345.273    -141.676
  C      -28.882    -345.612    -143.898
  O      -30.023    -345.121    -144.637
  C      -27.954    -344.414    -143.725
  O      -26.599    -344.821    -143.558
  C      -28.122    -343.717    -145.066
  O      -27.319    -344.376    -146.066
  C      -29.614    -343.930    -145.356
  N      -32.393    -340.025    -146.976
  C      -31.701    -340.983    -147.693
  N      -31.763    -340.892    -149.037
  N      -31.008    -341.944    -147.138
  C      -31.047    -341.923    -145.785
  C      -31.697    -341.026    -144.964
  C      -32.446    -339.957    -145.589
  O      -33.067    -339.074    -145.008
  N      -31.498    -341.323    -143.641
  C      -30.751    -342.412    -143.660
  N      -30.435    -342.803    -144.938
  O      -31.423    -346.828    -140.587
  O      -29.259    -346.294    -139.320
  H      -26.459    -343.914    -146.083
  H      -31.033    -347.722    -140.562
  H      -32.905    -339.305    -147.454
  H      -30.412    -342.946    -142.782
  H      -29.815    -344.099    -146.419
  H      -27.798    -342.673    -145.037
  H      -32.320    -340.209    -149.529
  H      -28.292    -343.762    -142.913
  H      -31.293    -341.606    -149.581
  H      -28.376    -346.374    -144.504
  H      -30.065    -347.018    -142.759
  H      -28.466    -346.783    -142.103
  P      -25.976    -344.759    -142.083
  C      -23.661    -345.352    -141.070
  O      -24.435    -345.159    -142.237
  O      -26.638    -346.028    -141.364
  O      -26.254    -343.494    -141.341
  H      -26.754    -345.850    -140.414
  H      -22.694    -345.773    -141.358
  H      -24.154    -346.043    -140.385
  H      -23.489    -344.392    -140.572
  H      -32.472    -343.934    -138.136
  H      -31.331    -345.165    -137.648
  H      -32.677    -345.581    -138.682

 3  4  5  6  7  8  9  10  11  12  23  26  30  31 0
 6-311+G(2d,p)
 ****
 33  35  36  37  38 0
 6-311+G(2d,p)
 ****
 1  2  13  14  15  16  17  18  19  20  21  22  24  25 0
 3-21G
 ****
 27  28  29  32  34  39  40  41  42  43  44  45  46  47  48  49 0
 3-21G
 ****


