%nproc=1
%NoSave
%Mem=1900MB
#P OB98/GEN NMR

erre ene a

0 1
  C      197.858      39.751      28.313
  O      198.983      38.867      28.217
  P      198.800      37.359      28.725
  C      199.439      36.268      26.452
  O      198.450      36.446      27.456
  C      200.193      34.953      26.679
  O      199.306      33.814      26.628
  C      201.276      34.686      25.641
  O      202.483      35.366      25.951
  C      201.471      33.187      25.804
  O      202.310      32.924      26.948
  C      200.041      32.698      26.064
  N      199.098      28.667      23.158
  C      199.813      28.768      24.334
  N      200.354      27.624      24.810
  N      199.988      29.889      24.986
  C      199.378      30.946      24.401
  C      198.643      30.973      23.236
  C      198.472      29.731      22.519
  O      197.859      29.582      21.465
  N      198.191      32.235      22.962
  C      198.631      32.971      23.966
  N      199.373      32.236      24.857
  O      197.405      37.416      29.514
  O      199.905      36.866      29.597
  H      203.221      33.150      26.683
  H      197.389      36.735      30.208
  H      199.001      27.781      22.696
  H      198.442      34.029      24.090
  H      200.003      31.877      26.788
  H      201.966      32.734      24.939
  H      200.217      26.720      24.388
  H      200.920      34.910      24.628
  H      200.853      27.672      25.689
  H      200.653      34.993      27.677
  H      200.142      37.104      26.460
  H      198.958      36.290      25.471
  P      203.010      36.470      24.913
  C      202.608      38.410      26.593
  O      202.304      37.844      25.333
  O      202.273      36.054      23.553
  O      204.489      36.517      24.748
  H      202.832      36.286      22.787
  H      202.173      39.410      26.643
  H      203.690      38.487      26.731
  H      202.177      37.799      27.391
  H      198.130      40.716      27.939
  H      197.558      39.837      29.337
  H      197.047      39.360      27.735

 3  4  5  6  7  8  9  10  11  12  23  26  30  31 0
 6-311+G(2d,p)
 ****
 33  35  36  37  38 0
 6-311+G(2d,p)
 ****
 1  2  13  14  15  16  17  18  19  20  21  22  24  25 0
 3-21G
 ****
 27  28  29  32  34  39  40  41  42  43  44  45  46  47  48  49 0
 3-21G
 ****


