%nproc=1
%NoSave
%Mem=1900MB
#P OB98/GEN NMR

erre ene a

0 1
  C     -182.254     161.730     132.614
  O     -182.754     160.424     132.830
  H     -181.565     161.705     131.767
  H     -181.713     162.077     133.499
  H     -183.075     162.413     132.383
  P     -183.810     160.252     134.026
  C     -185.583     159.719     132.216
  O     -185.233     160.520     133.337
  C     -187.068     159.372     132.249
  O     -187.366     158.527     133.374
  C     -187.991     160.577     132.380
  O     -188.182     161.208     131.125
  C     -189.264     159.908     132.874
  O     -189.961     159.308     131.764
  C     -188.724     158.809     133.808
  N     -189.605     157.098     138.566
  C     -189.875     156.564     137.355
  N     -189.652     157.093     136.135
  C     -189.087     158.307     136.236
  C     -188.754     158.980     137.402
  C     -189.026     158.320     138.611
  N     -188.740     158.865     139.845
  N     -188.193     160.206     137.115
  C     -188.139     160.249     135.799
  N     -188.701     159.140     135.220
  O     -183.517     161.025     135.264
  O     -183.812     158.660     134.203
  H     -190.803     158.953     132.104
  H     -183.755     158.219     133.337
  H     -190.330     155.577     137.369
  H     -187.691     161.048     135.220
  H     -189.297     157.881     133.714
  H     -189.954     160.616     133.337
  H     -187.633     161.274     133.145
  H     -187.299     158.800     131.341
  H     -184.986     158.801     132.203
  H     -189.121     158.405     140.656
  H     -188.425     159.823     139.878
  H     -185.349     160.295     131.315
  P     -188.103     162.804     130.991
  C     -185.999     162.589     129.529
  O     -186.565     163.162     130.703
  O     -188.716     163.562     132.116
  O     -188.817     163.125     129.598
  H     -189.342     163.946     129.667
  H     -184.977     162.894     129.440
  H     -186.546     162.920     128.671
  H     -186.048     161.522     129.594

 6  7  8  9  10  11  12  13  14  15  25  28  32  33  34  35 0
 6-311+G(2d,p)
 ****
 36  39  40 0
 6-311+G(2d,p)
 ****
 1  2  3  4  5  16  17  18  19  20  21  22  23  24 0
 3-21G
 ****
 26  27  29  30  31  37  38  41  42  43  44  45  46  47 0
 3-21G
 ****
 48 0
 3-21G
 ****


