%nproc=1
%NoSave
%Mem=1900MB
#P OB98/GEN NMR

erre ene a

0 1
  C     -261.248      -9.491    -129.241
  O     -261.759     -10.808    -129.177
  H     -261.992      -8.780    -128.873
  H     -260.358      -9.429    -128.611
  H     -260.971      -9.242    -130.270
  P     -263.060     -11.117    -130.063
  C     -264.430     -10.701    -127.899
  O     -264.217     -11.532    -129.031
  C     -265.845     -10.893    -127.367
  O     -266.065     -10.043    -126.225
  C     -266.953     -10.546    -128.357
  O     -267.177     -11.593    -129.289
  C     -268.134     -10.378    -127.415
  O     -268.650     -11.671    -127.044
  C     -267.480      -9.706    -126.196
  N     -270.768      -5.811    -125.733
  C     -270.928      -7.147    -125.612
  N     -269.999      -8.121    -125.729
  C     -268.791      -7.593    -125.981
  C     -268.465      -6.252    -126.109
  C     -269.521      -5.336    -125.981
  N     -269.356      -3.972    -126.174
  N     -267.120      -6.099    -126.384
  C     -266.649      -7.327    -126.438
  N     -267.618      -8.262    -126.194
  O     -262.678     -12.499    -130.784
  O     -263.422     -10.060    -131.051
  H     -269.332     -11.517    -126.367
  H     -262.342     -12.309    -131.680
  H     -271.938      -7.482    -125.397
  H     -265.621      -7.586    -126.656
  H     -267.884     -10.082    -125.248
  H     -268.960      -9.813    -127.856
  H     -266.758      -9.590    -128.860
  H     -265.941     -11.932    -127.027
  H     -264.290      -9.653    -128.184
  H     -270.191      -3.507    -126.517
  H     -268.478      -3.714    -126.614
  H     -263.697     -10.961    -127.129
  P     -267.333     -11.196    -130.835
  C     -269.370      -9.674    -130.363
  O     -268.877     -10.813    -131.053
  O     -267.180     -12.603    -131.582
  O     -266.341     -10.203    -131.342
  H     -266.457     -12.550    -132.240
  H     -270.405      -9.535    -130.597
  H     -268.817      -8.808    -130.663
  H     -269.259      -9.820    -129.309

 6  7  8  9  10  11  12  13  14  15  25  28  32  33  34  35 0
 6-311+G(2d,p)
 ****
 36  39  40 0
 6-311+G(2d,p)
 ****
 1  2  3  4  5  16  17  18  19  20  21  22  23  24 0
 3-21G
 ****
 26  27  29  30  31  37  38  41  42  43  44  45  46  47  48 0
 3-21G
 ****


