%nproc=1
%NoSave
%Mem=1900MB
#P OB98/GEN NMR

erre ene a

0 1
  C       22.488     258.313      81.024
  O       22.986     258.001      82.337
  P       24.350     257.193      82.589
  C       25.824     259.281      82.930
  O       25.333     258.079      83.503
  C       25.941     260.403      83.973
  O       24.628     261.009      84.205
  C       26.483     259.952      85.341
  O       27.331     261.003      85.811
  C       25.209     259.848      86.168
  O       25.434     259.847      87.568
  C       24.451     261.076      85.639
  N       23.036     261.138      85.983
  C       22.630     262.115      86.901
  O       23.445     262.856      87.454
  N       21.288     262.216      87.203
  C       20.433     261.417      86.644
  N       19.125     261.577      86.976
  C       20.815     260.366      85.687
  C       22.116     260.283      85.402
  O       24.995     256.692      81.336
  O       23.948     255.964      83.541
  H       24.484     255.181      83.301
  H       26.062     259.125      87.771
  H       20.070     259.726      85.237
  H       22.476     259.555      84.680
  H       24.954     261.984      85.979
  H       24.696     258.910      85.914
  H       27.060     259.019      85.295
  H       26.577     261.195      83.551
  H       18.895     262.319      87.635
  H       25.131     259.605      82.145
  H       18.376     261.018      86.600
  H       26.802     259.090      82.471
  P       28.920     260.767      85.892
  C       29.738     261.341      83.490
  O       29.614     261.752      84.833
  O       29.078     259.342      85.179
  O       29.510     260.717      87.267
  H       29.884     258.908      85.501
  H       29.454     262.175      82.834
  H       29.098     260.484      83.252
  H       30.783     261.079      83.287
  H       21.569     258.854      81.110
  H       22.319     257.406      80.482
  H       23.206     258.911      80.503

 3  4  5  6  7  8  9  10  11  12  13  24  27  28  29  30  32 0
 6-311+G(2d,p)
 ****
 34  35 0
 6-311+G(2d,p)
 ****
 1  2  14  15  16  17  18  19  20  21  22  23  25  26 0
 3-21G
 ****
 31  33  36  37  38  39  40  41  42  43  44  45  46 0
 3-21G
 ****


