%nproc=1
%NoSave
%Mem=1900MB
#P OB98/GEN NMR

erre ene a

0 1
  C       -2.537     189.516     605.949
  O       -3.941     189.455     605.862
  H       -2.109     188.790     605.243
  H       -2.192     189.268     606.954
  H       -2.179     190.517     605.666
  P       -4.811     190.384     606.845
  C       -4.954     192.535     605.416
  O       -4.381     191.901     606.558
  C       -5.957     193.600     605.858
  O       -5.240     194.583     606.665
  C       -6.597     194.336     604.663
  O       -8.023     194.344     604.704
  C       -5.892     195.695     604.664
  O       -6.633     196.752     604.092
  C       -5.530     195.906     606.139
  N       -4.390     196.793     606.364
  C       -4.572     198.143     606.043
  O       -5.610     198.634     605.619
  N       -3.470     198.925     606.241
  C       -2.245     198.532     606.711
  O       -1.310     199.298     606.878
  C       -2.124     197.098     607.000
  C       -3.177     196.308     606.826
  O       -4.800     189.987     608.284
  O       -6.292     190.314     606.228
  H       -6.148     197.585     604.301
  H       -6.840     189.704     606.768
  H       -3.595     199.920     606.033
  H       -1.164     196.747     607.365
  H       -3.123     195.239     607.024
  H       -6.387     196.294     606.703
  H       -4.957     195.590     604.086
  H       -6.375     193.823     603.723
  H       -6.724     193.137     606.495
  H       -5.457     191.763     604.820
  H       -4.163     192.997     604.815
  P       -8.956     193.093     604.349
  C       -9.437     192.320     606.818
  O       -8.849     192.035     605.549
  O       -8.816     192.556     602.961
  O      -10.445     193.680     604.508
  H      -11.003     193.209     603.843
  H       -9.262     191.501     607.484
  H      -10.491     192.464     606.699
  H       -8.999     193.209     607.222

 6  7  8  9  10  11  12  13  14  15  16  26  31  32  33  34  35 0
 6-311+G(2d,p)
 ****
 36  37 0
 6-311+G(2d,p)
 ****
 1  2  3  4  5  17  18  19  20  21  22  23  24  25 0
 3-21G
 ****
 27  28  29  30  38  39  40  41  42  43  44  45 0
 3-21G
 ****


