%nproc=1
%NoSave
%Mem=1900MB
#P OB98/GEN NMR

erre ene a

0 1
  C     -617.226      34.486     280.139
  O     -617.586      33.204     280.627
  H     -616.810      35.069     280.966
  H     -618.109      34.997     279.754
  H     -616.463      34.410     279.348
  P     -617.902      32.078     279.521
  C     -615.405      31.352     279.665
  O     -616.498      31.711     278.829
  C     -614.802      30.035     279.202
  O     -614.475      30.094     277.812
  C     -613.504      29.647     279.934
  O     -613.764      29.011     281.173
  C     -612.902      28.676     278.920
  O     -613.575      27.401     279.032
  C     -613.241      29.345     277.594
  N     -609.424      29.931     274.287
  C     -610.195      28.825     274.556
  N     -609.924      27.717     273.829
  N     -611.165      28.800     275.423
  C     -611.323      29.979     276.090
  C     -610.606      31.153     275.925
  C     -609.559      31.154     274.935
  O     -608.840      32.127     274.653
  N     -611.046      32.136     276.767
  C     -612.015      31.563     277.454
  N     -612.219      30.252     277.090
  O     -618.685      32.894     278.388
  O     -618.711      30.920     280.008
  H     -613.118      26.790     278.437
  H     -619.635      32.708     278.467
  H     -608.687      29.895     273.601
  H     -612.597      32.043     278.228
  H     -613.432      28.603     276.797
  H     -611.839      28.487     279.114
  H     -609.172      27.649     273.158
  H     -612.831      30.514     280.042
  H     -610.485      26.890     274.004
  H     -615.561      29.249     279.336
  H     -615.775      31.251     280.698
  H     -614.651      32.156     279.627
  P     -612.733      29.243     282.377
  C     -614.374      30.942     283.474
  O     -613.049      30.691     282.998
  O     -611.341      29.455     281.617
  O     -612.658      28.127     283.371
  H     -610.747      28.687     281.796
  H     -614.433      31.940     283.856
  H     -614.611      30.248     284.253
  H     -615.070      30.826     282.669

 6  7  8  9  10  11  12  13  14  15  26  29  33  34 0
 6-311+G(2d,p)
 ****
 36  38  39  40  41 0
 6-311+G(2d,p)
 ****
 1  2  3  4  5  16  17  18  19  20  21  22  23  24  25 0
 3-21G
 ****
 27  28  30  31  32  35  37  42  43  44  45  46  47 0
 3-21G
 ****
 48  49 0
 3-21G
 ****


