%nproc=1
%NoSave
%Mem=1900MB
#P OB98/GEN NMR

erre ene a

0 1
  C      -46.594     444.521     529.614
  O      -46.135     445.442     530.605
  P      -46.200     446.999     530.203
  C      -48.222     448.431     529.425
  O      -47.723     447.491     530.361
  C      -49.496     449.101     529.949
  O      -50.503     448.140     530.324
  C      -49.262     449.956     531.185
  O      -48.718     451.213     530.812
  C      -50.667     450.058     531.769
  O      -51.421     451.117     531.133
  C      -51.273     448.687     531.425
  N      -53.600     444.613     533.351
  C      -53.955     445.409     532.274
  N      -55.069     445.051     531.605
  N      -53.270     446.454     531.899
  C      -52.175     446.690     532.662
  C      -51.712     445.961     533.731
  C      -52.481     444.803     534.138
  O      -52.201     444.058     535.077
  N      -50.535     446.469     534.216
  C      -50.364     447.584     533.520
  N      -51.293     447.727     532.522
  O      -45.956     446.983     528.625
  O      -45.185     447.839     530.916
  H      -50.999     451.969     531.335
  H      -45.081     447.368     528.418
  H      -54.175     443.821     533.604
  H      -49.562     448.297     533.675
  H      -52.314     448.785     531.080
  H      -50.653     450.293     532.838
  H      -55.643     444.257     531.836
  H      -48.594     449.431     531.889
  H      -55.338     445.619     530.807
  H      -49.899     449.725     529.140
  H      -48.432     447.939     528.473
  H      -47.442     449.177     529.225
  P      -47.451     451.759     531.630
  C      -44.994     450.965     531.961
  O      -46.188     450.872     531.198
  O      -47.761     451.284     533.134
  O      -47.248     453.236     531.556
  H      -47.554     452.013     533.747
  H      -44.465     450.011     531.909
  H      -45.204     451.203     533.008
  H      -44.361     451.749     531.531
  H      -46.506     443.522     529.987
  H      -46.002     444.625     528.729
  H      -47.619     444.726     529.384

 3  4  5  6  7  8  9  10  11  12  23  26  30  31 0
 6-311+G(2d,p)
 ****
 33  35  36  37  38 0
 6-311+G(2d,p)
 ****
 1  2  13  14  15  16  17  18  19  20  21  22  24  25 0
 3-21G
 ****
 27  28  29  32  34  39  40  41  42  43  44  45  46  47  48  49 0
 3-21G
 ****


