%nproc=1
%NoSave
%Mem=1900MB
#P OB98/GEN NMR

erre ene a

0 1
  C     -553.193    -194.147     279.791
  O     -554.521    -194.508     279.480
  H     -552.561    -194.334     278.916
  H     -552.822    -194.754     280.622
  H     -553.128    -193.084     280.048
  P     -555.651    -194.167     280.571
  C     -556.476    -196.620     280.846
  O     -556.781    -195.297     280.419
  C     -556.861    -197.635     279.770
  O     -555.783    -197.718     278.799
  C     -557.115    -199.040     280.317
  O     -558.209    -199.618     279.596
  C     -555.836    -199.789     279.980
  O     -556.037    -201.204     279.875
  C     -555.403    -199.102     278.679
  N     -553.968    -199.252     278.447
  C     -553.577    -199.541     277.136
  O     -554.419    -199.676     276.253
  N     -552.239    -199.746     276.872
  C     -551.386    -199.734     277.851
  N     -550.084    -199.971     277.530
  C     -551.763    -199.498     279.262
  C     -553.058    -199.265     279.476
  O     -556.359    -192.862     279.973
  O     -555.155    -193.965     281.959
  H     -556.727    -201.366     279.197
  H     -556.681    -192.281     280.690
  H     -551.023    -199.532     280.040
  H     -553.433    -199.084     280.480
  H     -555.947    -199.524     277.822
  H     -555.090    -199.622     280.768
  H     -557.336    -199.053     281.386
  H     -557.748    -197.256     279.239
  H     -549.868    -200.144     276.559
  H     -557.031    -196.837     281.759
  H     -549.343    -200.033     278.213
  H     -555.403    -196.687     281.068
  P     -559.085    -200.709     280.383
  C     -559.745    -202.451     278.562
  O     -560.145    -201.332     279.343
  O     -559.991    -199.821     281.362
  O     -558.269    -201.714     281.128
  H     -559.683    -199.929     282.277
  H     -560.552    -202.748     277.924
  H     -559.485    -203.263     279.209
  H     -558.898    -202.185     277.965

 6  7  8  9  10  11  12  13  14  15  16  26  30  31  32  33  35 0
 6-311+G(2d,p)
 ****
 37  38 0
 6-311+G(2d,p)
 ****
 1  2  3  4  5  17  18  19  20  21  22  23  24  25 0
 3-21G
 ****
 27  28  29  34  36  39  40  41  42  43  44  45  46 0
 3-21G
 ****


