%nproc=1
%NoSave
%Mem=1900MB
#P OB98/GEN NMR

erre ene a

0 1
  C       25.479     123.079      85.550
  O       24.213     123.702      85.472
  H       25.786     122.779      84.546
  H       25.416     122.188      86.178
  H       26.225     123.769      85.956
  P       23.669     124.431      86.791
  C       23.096     126.669      85.598
  O       23.893     126.006      86.568
  C       23.663     128.060      85.317
  O       23.440     128.895      86.489
  C       25.169     128.072      85.025
  O       25.430     129.078      84.041
  C       25.772     128.502      86.349
  O       27.062     129.086      86.232
  C       24.707     129.485      86.845
  N       24.789     129.723      88.285
  C       24.942     131.040      88.706
  O       24.927     132.020      87.965
  N       25.118     131.210      90.056
  C       25.179     130.220      90.992
  O       25.360     130.436      92.184
  C       25.020     128.851      90.484
  C       24.838     128.669      89.174
  O       24.768     124.053      87.890
  O       22.287     124.054      87.209
  H       24.529     123.221      88.339
  H       27.698     128.361      86.066
  H       25.231     132.157      90.378
  H       25.074     128.039      91.196
  H       24.739     127.669      88.764
  H       24.787     130.437      86.309
  H       25.851     127.640      87.021
  H       25.567     127.110      84.685
  H       23.100     128.509      84.491
  H       22.074     126.771      85.977
  H       23.074     126.072      84.680
  P       26.353     128.668      82.793
  C       24.398     129.560      81.294
  O       25.355     128.541      81.545
  O       26.721     127.158      83.166
  O       27.519     129.579      82.607
  H       25.997     126.690      83.615
  H       23.825     129.305      80.427
  H       24.902     130.489      81.128
  H       23.746     129.653      82.138

 6  7  8  9  10  11  12  13  14  15  16  27  31  32  33  34  35 0
 6-311+G(2d,p)
 ****
 36  37 0
 6-311+G(2d,p)
 ****
 1  2  3  4  5  17  18  19  20  21  22  23  24  25 0
 3-21G
 ****
 26  28  29  30  38  39  40  41  42  43  44  45 0
 3-21G
 ****


