%nproc=1
%NoSave
%Mem=1900MB
#P OB98/GEN NMR

erre ene a

0 1
  C     1183.434    -117.038    -932.458
  O     1184.761    -116.720    -932.086
  H     1183.457    -117.686    -933.336
  H     1182.897    -116.121    -932.711
  H     1182.921    -117.560    -931.643
  P     1184.971    -116.054    -930.641
  C     1185.968    -118.258    -929.709
  O     1184.968    -117.261    -929.583
  C     1186.813    -118.329    -928.434
  O     1187.673    -117.163    -928.340
  C     1186.006    -118.375    -927.140
  O     1185.579    -119.693    -926.843
  C     1187.044    -117.891    -926.141
  O     1187.965    -118.965    -925.840
  C     1187.758    -116.786    -926.929
  N     1188.582    -112.126    -925.100
  C     1189.368    -113.263    -925.029
  N     1190.543    -113.138    -924.364
  N     1189.034    -114.414    -925.558
  C     1187.828    -114.397    -926.158
  C     1186.954    -113.350    -926.293
  C     1187.336    -112.073    -925.727
  O     1186.676    -111.037    -925.771
  N     1185.825    -113.713    -926.972
  C     1186.011    -114.990    -927.239
  N     1187.205    -115.462    -926.762
  O     1183.568    -115.317    -930.387
  O     1186.114    -115.102    -930.542
  H     1187.448    -119.659    -925.384
  H     1183.681    -114.364    -930.551
  H     1188.872    -111.267    -924.669
  H     1185.302    -115.619    -927.772
  H     1188.827    -116.728    -926.677
  H     1186.601    -117.581    -925.193
  H     1190.839    -112.290    -923.917
  H     1185.163    -117.670    -927.170
  H     1191.131    -113.952    -924.306
  H     1187.467    -119.205    -928.513
  H     1186.616    -118.019    -930.561
  H     1185.490    -119.226    -929.882
  P     1184.187    -119.889    -926.058
  C     1182.742    -120.590    -928.093
  O     1183.012    -119.591    -927.114
  O     1184.154    -118.610    -925.093
  O     1184.067    -121.154    -925.285
  H     1184.255    -118.900    -924.160
  H     1181.943    -120.263    -928.725
  H     1182.461    -121.500    -927.606
  H     1183.619    -120.757    -928.683

 6  7  8  9  10  11  12  13  14  15  26  29  33  34 0
 6-311+G(2d,p)
 ****
 36  38  39  40  41 0
 6-311+G(2d,p)
 ****
 1  2  3  4  5  16  17  18  19  20  21  22  23  24  25 0
 3-21G
 ****
 27  28  30  31  32  35  37  42  43  44  45  46  47 0
 3-21G
 ****
 48  49 0
 3-21G
 ****


