%nproc=1
%NoSave
%Mem=1900MB
#P OB98/GEN NMR

erre ene a

0 1
  C      521.971    -400.396      -2.456
  O      520.861    -400.037      -3.255
  H      522.397    -399.490      -2.021
  H      522.733    -400.881      -3.070
  H      521.668    -401.065      -1.644
  P      519.938    -401.194      -3.864
  C      517.709    -399.960      -3.435
  O      518.604    -400.488      -4.403
  C      516.676    -399.041      -4.097
  O      517.347    -397.824      -4.543
  C      515.981    -399.660      -5.333
  O      514.669    -399.092      -5.399
  C      516.867    -399.133      -6.446
  O      516.306    -399.322      -7.718
  C      517.062    -397.688      -5.954
  N      518.117    -396.936      -6.626
  C      517.878    -396.516      -7.928
  O      516.838    -396.724      -8.554
  N      518.895    -395.817      -8.525
  C      520.090    -395.499      -7.952
  O      520.955    -394.843      -8.525
  C      520.289    -395.978      -6.573
  C      519.307    -396.658      -5.981
  O      519.715    -402.380      -2.982
  O      520.697    -401.604      -5.217
  H      521.190    -402.431      -5.080
  H      515.351    -399.093      -7.683
  H      518.739    -395.502      -9.466
  H      521.227    -395.751      -6.090
  H      519.415    -397.020      -4.962
  H      516.119    -397.140      -6.037
  H      517.820    -399.676      -6.452
  H      515.909    -400.749      -5.283
  H      515.938    -398.738      -3.342
  H      518.297    -399.389      -2.707
  H      517.208    -400.781      -2.917
  P      513.322    -399.956      -5.268
  C      512.370    -397.608      -4.736
  O      512.084    -398.945      -5.142
  O      513.367    -400.990      -4.186
  O      513.117    -400.636      -6.710
  H      512.601    -401.464      -6.608
  H      511.461    -397.046      -4.693
  H      513.036    -397.156      -5.441
  H      512.828    -397.619      -3.769

 6  7  8  9  10  11  12  13  14  15  16  27  31  32  33  34  35 0
 6-311+G(2d,p)
 ****
 36  37 0
 6-311+G(2d,p)
 ****
 1  2  3  4  5  17  18  19  20  21  22  23  24  25 0
 3-21G
 ****
 26  28  29  30  38  39  40  41  42  43  44  45 0
 3-21G
 ****


