%nproc=1
%NoSave
%Mem=1900MB
#P OB98/GEN NMR

erre ene a

0 1
  C      -39.788      17.416     441.081
  O      -38.940      16.646     441.914
  H      -39.751      17.004     440.067
  H      -39.455      18.456     441.039
  H      -40.818      17.368     441.443
  P      -38.700      17.149     443.417
  C      -36.610      18.526     442.750
  O      -37.931      18.547     443.288
  C      -36.098      19.951     442.554
  O      -36.884      20.629     441.553
  C      -36.204      20.805     443.811
  O      -35.186      20.474     444.738
  C      -36.120      22.200     443.219
  O      -34.766      22.563     442.932
  C      -36.940      22.031     441.919
  N      -38.321      22.480     442.055
  C      -38.583      23.795     441.652
  O      -37.685      24.500     441.202
  N      -39.865      24.275     441.789
  C      -40.798      23.518     442.269
  N      -42.041      24.056     442.376
  C      -40.566      22.121     442.694
  C      -39.317      21.675     442.564
  O      -38.054      16.176     444.359
  O      -40.162      17.580     443.910
  H      -34.449      21.913     442.275
  H      -40.624      16.823     444.316
  H      -41.382      21.522     443.084
  H      -39.060      20.661     442.855
  H      -36.475      22.590     441.098
  H      -36.526      22.949     443.899
  H      -37.198      20.688     444.268
  H      -35.061      19.903     442.196
  H      -42.151      25.020     442.087
  H      -36.658      18.005     441.790
  H      -42.862      23.534     442.655
  H      -35.933      17.972     443.412
  P      -35.472      20.507     446.314
  C      -34.768      22.993     446.313
  O      -35.781      22.045     446.658
  O      -34.437      19.856     447.169
  O      -36.919      19.815     446.435
  H      -36.866      18.840     446.299
  H      -35.089      23.975     446.590
  H      -34.593      22.960     445.258
  H      -33.864      22.754     446.833

 6  7  8  9  10  11  12  13  14  15  16  26  30  31  32  33  35 0
 6-311+G(2d,p)
 ****
 37  38 0
 6-311+G(2d,p)
 ****
 1  2  3  4  5  17  18  19  20  21  22  23  24  25 0
 3-21G
 ****
 27  28  29  34  36  39  40  41  42  43  44  45  46 0
 3-21G
 ****


