%nproc=1
%NoSave
%Mem=1900MB
#P OB98/GEN NMR

erre ene a

0 1
  C      298.010     133.947      42.584
  O      296.795     134.409      41.983
  P      295.895     133.327      41.210
  C      296.400     131.877      39.105
  O      296.471     133.157      39.722
  C      296.881     131.965      37.654
  O      296.058     132.861      36.884
  C      298.295     132.505      37.525
  O      299.246     131.505      37.838
  C      298.331     132.954      36.065
  O      298.771     131.897      35.197
  C      296.855     133.325      35.779
  N      296.666     134.745      35.549
  C      296.233     135.105      34.269
  O      296.047     134.241      33.408
  N      296.034     136.433      33.994
  C      296.278     137.325      34.906
  N      296.069     138.627      34.565
  C      296.764     136.989      36.260
  C      296.936     135.694      36.508
  O      294.512     134.094      40.989
  O      295.704     132.050      41.965
  H      299.013     132.331      34.350
  H      293.766     133.464      41.015
  H      296.962     137.769      36.980
  H      297.293     135.355      37.477
  H      296.493     132.787      34.891
  H      299.020     133.790      35.920
  H      298.426     133.378      38.181
  H      296.821     130.962      37.207
  H      295.738     138.821      33.630
  H      295.379     131.497      39.136
  H      296.233     139.402      35.198
  H      297.014     131.173      39.682
  P      299.940     131.562      39.279
  C      301.825     132.997      40.276
  O      301.205     132.528      39.090
  O      300.641     130.123      39.371
  O      299.066     131.835      40.454
  H      301.030     129.991      40.255
  H      302.781     133.462      40.016
  H      302.016     132.168      40.963
  H      301.190     133.744      40.756
  H      298.506     134.766      43.061
  H      298.647     133.535      41.829
  H      297.785     133.194      43.310

 3  4  5  6  7  8  9  10  11  12  13  21  23  27  28  29  30  32 0
 6-311+G(2d,p)
 ****
 34  35 0
 6-311+G(2d,p)
 ****
 1  2  14  15  16  17  18  19  20  22  24  25  26 0
 3-21G
 ****
 31  33  36  37  38  39  40  41  42  43  44  45  46 0
 3-21G
 ****


