%nproc=1
%NoSave
%Mem=1900MB
#P OB98/GEN NMR

erre ene a

0 1
  C      -88.868     -12.082      -0.208
  O      -88.090     -12.668       0.816
  H      -88.274     -12.048      -1.125
  H      -89.140     -11.061       0.070
  H      -89.770     -12.671      -0.391
  P      -88.810     -12.894       2.233
  C      -87.931     -10.566       2.966
  O      -88.048     -11.945       3.284
  C      -87.518      -9.761       4.195
  O      -88.595      -9.814       5.177
  C      -86.241     -10.269       4.885
  O      -85.535      -9.134       5.401
  C      -86.786     -11.062       6.064
  O      -85.831     -11.217       7.111
  C      -87.997     -10.202       6.431
  N      -88.594     -12.267      10.979
  C      -87.530     -11.564      10.446
  N      -86.459     -11.383      11.245
  N      -87.518     -11.081       9.233
  C      -88.672     -11.309       8.555
  C      -89.790     -11.989       8.965
  C      -89.778     -12.543      10.305
  O      -90.683     -13.191      10.825
  N      -90.739     -12.028       7.975
  C      -90.192     -11.366       6.968
  N      -88.939     -10.913       7.271
  O      -88.331     -14.367       2.637
  O      -90.298     -12.772       2.222
  H      -86.307     -11.543       7.904
  H      -88.988     -15.026       2.347
  H      -88.545     -12.630      11.917
  H      -90.659     -11.199       6.005
  H      -87.714      -9.290       6.972
  H      -87.102     -12.061       5.735
  H      -86.412     -11.686      12.206
  H      -85.581     -10.856       4.240
  H      -85.685     -10.834      10.888
  H      -87.411      -8.709       3.903
  H      -88.899     -10.202       2.605
  H      -87.187     -10.444       2.172
  P      -84.319      -8.550       4.537
  C      -83.297     -10.820       3.783
  O      -83.136      -9.633       4.544
  O      -83.741      -7.390       5.477
  O      -84.715      -8.026       3.196
  H      -83.319      -6.700       4.933
  H      -82.428     -11.434       3.892
  H      -83.428     -10.567       2.752
  H      -84.156     -11.354       4.132

 6  7  8  9  10  11  12  13  14  15  26  29  33  34 0
 6-311+G(2d,p)
 ****
 36  38  39  40  41 0
 6-311+G(2d,p)
 ****
 1  2  3  4  5  16  17  18  19  20  21  22  23  24  25 0
 3-21G
 ****
 27  28  30  31  32  35  37  42  43  44  45  46  47 0
 3-21G
 ****
 48  49 0
 3-21G
 ****


