%nproc=1
%NoSave
%Mem=1900MB
#P OB98/GEN NMR

erre ene a

0 1
  C      -75.181     152.732     -61.607
  O      -75.540     154.015     -62.065
  P      -77.003     154.378     -62.598
  C      -76.124     153.798     -64.976
  O      -77.193     153.696     -64.043
  C      -76.531     154.498     -66.281
  O      -77.460     153.663     -67.005
  C      -77.279     155.801     -65.970
  O      -76.558     156.984     -65.692
  C      -78.327     155.929     -67.071
  O      -77.915     156.806     -68.120
  C      -78.474     154.495     -67.592
  N      -83.383     154.387     -68.853
  C      -82.317     154.917     -69.555
  N      -82.634     155.671     -70.628
  N      -81.064     154.740     -69.208
  C      -80.914     154.042     -68.060
  C      -81.894     153.457     -67.289
  C      -83.265     153.627     -67.696
  O      -84.243     153.245     -67.054
  N      -81.373     152.893     -66.153
  C      -80.088     153.167     -66.210
  N      -79.771     153.897     -67.332
  O      -77.458     155.790     -62.409
  O      -77.923     153.444     -61.659
  H      -77.641     157.650     -67.712
  H      -78.755     153.926     -61.493
  H      -84.329     154.627     -69.117
  H      -79.355     152.893     -65.462
  H      -78.316     154.466     -68.677
  H      -79.257     156.345     -66.669
  H      -83.582     155.953     -70.829
  H      -77.854     155.621     -65.051
  H      -81.889     156.214     -71.061
  H      -75.674     154.633     -66.943
  H      -75.767     152.782     -65.177
  H      -75.295     154.346     -64.522
  P      -77.032     158.186     -64.749
  C      -76.793     160.124     -66.407
  O      -77.697     159.319     -65.667
  O      -75.667     158.877     -64.271
  O      -77.852     157.775     -63.570
  H      -75.821     159.370     -63.441
  H      -77.314     161.025     -66.742
  H      -76.447     159.567     -67.285
  H      -75.937     160.409     -65.794
  H      -74.155     152.736     -61.304
  H      -75.318     152.021     -62.395
  H      -75.798     152.465     -60.774

 3  4  5  6  7  8  9  10  11  12  23  26  30  31 0
 6-311+G(2d,p)
 ****
 33  35  36  37  38 0
 6-311+G(2d,p)
 ****
 1  2  13  14  15  16  17  18  19  20  21  22  24  25 0
 3-21G
 ****
 27  28  29  32  34  39  40  41  42  43  44  45  46  47  48  49 0
 3-21G
 ****


