%nproc=1
%NoSave
%Mem=1900MB
#P OB98/GEN NMR

erre ene a

0 1
  C     -116.463    -103.912      75.382
  O     -117.693    -104.281      76.016
  P     -117.722    -105.066      77.415
  C     -119.785    -104.187      78.667
  O     -119.237    -105.266      77.917
  C     -120.738    -103.306      77.847
  O     -121.882    -104.071      77.379
  C     -121.301    -102.091      78.597
  O     -121.497    -101.075      77.611
  C     -122.637    -102.615      79.096
  O     -123.550    -101.589      79.455
  C     -123.073    -103.451      77.897
  N     -127.568    -105.524      76.590
  C     -126.748    -104.674      75.935
  N     -125.552    -104.197      76.332
  C     -125.198    -104.715      77.518
  C     -125.925    -105.600      78.299
  C     -127.175    -106.001      77.794
  N     -128.037    -106.829      78.476
  N     -125.255    -105.886      79.472
  C     -124.146    -105.176      79.402
  N     -124.062    -104.454      78.240
  O     -116.810    -104.499      78.455
  O     -117.260    -106.554      77.040
  H     -124.362    -102.008      79.795
  H     -116.599    -106.857      77.692
  H     -127.103    -104.326      74.969
  H     -123.383    -105.129      80.169
  H     -123.493    -102.821      77.104
  H     -122.471    -103.237      79.985
  H     -120.653    -101.736      79.403
  H     -120.196    -102.979      76.952
  H     -118.960    -103.573      79.044
  H     -128.948    -106.983      78.076
  H     -127.819    -107.090      79.426
  H     -120.318    -104.597      79.532
  P     -120.847     -99.619      77.762
  C     -120.096     -99.130      75.367
  O     -121.066     -98.871      76.364
  O     -119.441     -99.607      78.264
  O     -121.832     -98.839      78.757
  H     -121.367     -98.070      79.138
  H     -119.182     -98.571      75.588
  H     -120.486     -98.807      74.398
  H     -119.864    -100.198      75.315
  H     -116.673    -103.401      74.466
  H     -115.890    -104.792      75.176
  H     -115.907    -103.268      76.031

 3  4  5  6  7  8  9  10  11  12  22  25  29  30  31  32 0
 6-311+G(2d,p)
 ****
 33  36  37 0
 6-311+G(2d,p)
 ****
 1  2  13  14  15  16  17  18  19  20  21  23  24  26 0
 3-21G
 ****
 27  28  34  35  38  39  40  41  42  43  44  45  46  47  48 0
 3-21G
 ****


