%nproc=1
%NoSave
%Mem=1900MB
#P OB98/GEN NMR

erre ene a

0 1
  C       45.837    -213.022     335.331
  O       45.108    -212.027     336.061
  P       45.265    -212.023     337.659
  C       43.462    -213.917     337.856
  O       44.783    -213.474     338.141
  C       43.409    -215.442     337.866
  O       43.628    -215.954     339.203
  C       42.070    -216.020     337.427
  O       41.899    -215.920     336.023
  C       42.182    -217.444     337.959
  O       42.966    -218.252     337.067
  C       42.947    -217.230     339.283
  N       42.090    -217.305     340.459
  C       41.361    -218.480     340.600
  O       41.400    -219.401     339.785
  N       40.560    -218.555     341.709
  C       40.400    -217.579     342.648
  O       39.674    -217.705     343.627
  C       41.160    -216.341     342.419
  C       41.958    -216.259     341.351
  O       44.075    -211.047     338.083
  O       46.624    -211.605     338.109
  H       43.293    -211.130     337.512
  H       42.927    -219.164     337.415
  H       40.029    -219.403     341.837
  H       41.039    -215.536     343.131
  H       42.524    -215.354     341.162
  H       43.736    -217.986     339.389
  H       41.206    -217.927     338.070
  H       41.252    -215.497     337.937
  H       44.212    -215.817     337.218
  H       43.153    -213.552     336.873
  H       42.781    -213.492     338.597
  P       41.081    -214.646     335.480
  C       39.000    -215.962     334.600
  O       39.530    -215.047     335.534
  O       41.440    -214.689     333.921
  O       41.441    -213.367     336.161
  H       41.396    -215.584     333.543
  H       38.064    -216.366     334.996
  H       39.687    -216.790     334.411
  H       38.789    -215.445     333.657
  H       45.642    -212.911     334.285
  H       45.528    -213.996     335.650
  H       46.884    -212.902     335.514

 3  4  5  6  7  8  9  10  11  12  13  24  28  29  30  31  32 0
 6-311+G(2d,p)
 ****
 33  34 0
 6-311+G(2d,p)
 ****
 1  2  14  15  16  17  18  19  20  21  22  23  25  26  27 0
 3-21G
 ****
 35  36  37  38  39  40  41  42  43  44  45 0
 3-21G
 ****


