%nproc=1
%NoSave
%Mem=1900MB
#P OB98/GEN NMR

erre ene a

0 1
  C      714.610    -317.664      -0.558
  O      715.312    -316.589       0.059
  P      714.885    -315.988       1.494
  C      716.921    -316.602       2.957
  O      716.211    -315.557       2.290
  C      718.431    -316.338       2.987
  O      719.038    -316.693       1.729
  C      718.805    -314.869       3.226
  O      718.687    -314.533       4.592
  C      720.229    -314.835       2.672
  O      721.159    -315.352       3.642
  C      720.123    -315.790       1.480
  N      721.882    -312.124      -1.643
  C      722.330    -312.604      -0.462
  N      721.818    -313.574       0.309
  C      720.709    -314.095      -0.260
  C      720.127    -313.708      -1.457
  C      720.758    -312.679      -2.161
  N      720.288    -312.179      -3.356
  N      718.990    -314.451      -1.711
  C      718.894    -315.286      -0.689
  N      719.925    -315.110       0.207
  O      713.964    -316.880       2.279
  O      714.174    -314.594       1.159
  H      722.052    -315.124       3.337
  H      713.518    -314.386       1.856
  H      723.245    -312.136      -0.075
  H      718.126    -316.027      -0.568
  H      721.032    -316.407       1.360
  H      720.554    -313.827       2.406
  H      718.162    -314.208       2.621
  H      718.870    -316.976       3.762
  H      716.729    -317.540       2.436
  H      720.781    -311.411      -3.785
  H      719.420    -312.548      -3.739
  H      716.537    -316.681       3.981
  P      718.856    -313.017       5.074
  C      716.432    -312.317       5.590
  O      717.680    -312.731       6.134
  O      718.999    -312.007       3.985
  O      720.161    -313.060       6.006
  H      720.609    -312.189       5.955
  H      716.483    -311.262       5.334
  H      715.655    -312.477       6.345
  H      716.195    -312.907       4.700
  H      715.066    -317.895      -1.498
  H      713.591    -317.380      -0.716
  H      714.646    -318.525       0.077

 3  4  5  6  7  8  9  10  11  12  22  25  29  30  31  32 0
 6-311+G(2d,p)
 ****
 33  36  37 0
 6-311+G(2d,p)
 ****
 1  2  13  14  15  16  17  18  19  20  21  23  24  26 0
 3-21G
 ****
 27  28  34  35  38  39  40  41  42  43  44  45  46  47  48 0
 3-21G
 ****


