%nproc=1
%NoSave
%Mem=1900MB
#P OB98/GEN NMR

erre ene a

0 1
  C      365.581     653.313    -402.423
  O      365.039     654.522    -402.936
  P      365.976     655.828    -402.875
  C      364.809     656.687    -400.731
  O      365.188     656.978    -402.061
  C      363.391     657.209    -400.422
  O      363.167     658.489    -401.079
  C      362.278     656.265    -400.877
  O      361.198     656.385    -399.946
  C      361.840     656.854    -402.208
  O      360.543     656.414    -402.592
  C      361.975     658.348    -401.894
  N      359.698     662.029    -404.610
  C      359.362     661.408    -403.448
  N      360.010     660.426    -402.798
  C      361.145     660.108    -403.457
  C      361.620     660.637    -404.646
  C      360.841     661.646    -405.240
  N      361.167     662.238    -406.434
  N      362.788     660.007    -405.029
  C      363.024     659.124    -404.068
  N      362.073     659.166    -403.093
  O      365.967     656.356    -404.387
  O      367.361     655.552    -402.397
  H      360.194     657.051    -403.252
  H      366.831     656.195    -404.800
  H      358.444     661.760    -402.985
  H      363.853     658.421    -404.055
  H      361.114     658.731    -401.314
  H      362.556     656.564    -402.985
  H      362.578     655.218    -400.981
  H      363.307     657.384    -399.335
  H      365.515     657.153    -400.026
  H      360.522     662.930    -406.803
  H      361.976     661.923    -406.931
  H      364.874     655.619    -400.557
  P      360.760     655.055    -399.164
  C      358.274     654.930    -399.902
  O      359.200     655.194    -398.857
  O      361.455     655.227    -397.733
  O      361.174     653.799    -399.851
  H      361.613     654.348    -397.328
  H      357.423     654.380    -399.472
  H      358.709     654.335    -400.705
  H      357.916     655.877    -400.302
  H      364.861     652.528    -402.523
  H      365.826     653.442    -401.389
  H      366.465     653.058    -402.970

 3  4  5  6  7  8  9  10  11  12  22  25  29  30  31  32 0
 6-311+G(2d,p)
 ****
 33  36  37 0
 6-311+G(2d,p)
 ****
 1  2  13  14  15  16  17  18  19  20  21  23  24  26 0
 3-21G
 ****
 27  28  34  35  38  39  40  41  42  43  44  45  46  47  48 0
 3-21G
 ****


