%nproc=1
%NoSave
%Mem=1900MB
#P OB98/GEN NMR

erre ene a

0 1
  C     -512.167    -413.132    -109.730
  O     -513.494    -413.570    -110.035
  P     -514.500    -413.893    -108.832
  C     -516.620    -413.548    -110.257
  O     -515.877    -414.451    -109.449
  C     -516.190    -413.652    -111.728
  O     -516.422    -415.000    -112.232
  C     -516.973    -412.691    -112.634
  O     -516.142    -412.238    -113.718
  C     -518.048    -413.585    -113.221
  O     -518.584    -413.040    -114.426
  C     -517.276    -414.892    -113.386
  N     -520.260    -417.653    -116.503
  C     -519.465    -416.590    -116.731
  N     -518.680    -415.919    -115.859
  C     -518.760    -416.464    -114.637
  C     -519.526    -417.558    -114.249
  C     -520.310    -418.163    -115.244
  N     -521.146    -419.227    -114.999
  N     -519.355    -417.825    -112.906
  C     -518.547    -416.877    -112.479
  N     -518.132    -416.054    -113.491
  O     -514.657    -412.817    -107.810
  O     -513.858    -415.213    -108.182
  H     -519.206    -413.696    -114.792
  H     -513.906    -415.143    -107.204
  H     -519.457    -416.223    -117.756
  H     -518.239    -416.737    -111.451
  H     -516.636    -414.874    -114.275
  H     -518.870    -413.697    -112.502
  H     -517.390    -411.821    -112.125
  H     -515.116    -413.461    -111.797
  H     -516.477    -412.527    -109.895
  H     -521.756    -419.522    -115.751
  H     -521.301    -419.518    -114.045
  H     -517.687    -413.762    -110.138
  P     -515.725    -410.682    -113.680
  C     -513.113    -410.587    -113.669
  O     -514.306    -410.594    -114.416
  O     -515.801    -410.075    -112.320
  O     -516.756    -410.039    -114.725
  H     -516.801    -410.494    -115.584
  H     -512.265    -410.659    -114.351
  H     -513.075    -411.444    -112.986
  H     -513.028    -409.660    -113.098
  H     -511.630    -412.961    -110.640
  H     -511.666    -413.884    -109.156
  H     -512.212    -412.224    -109.166

 3  4  5  6  7  8  9  10  11  12  22  25  29  30  31  32 0
 6-311+G(2d,p)
 ****
 33  36  37 0
 6-311+G(2d,p)
 ****
 1  2  13  14  15  16  17  18  19  20  21  23  24  26 0
 3-21G
 ****
 27  28  34  35  38  39  40  41  42  43  44  45  46  47  48 0
 3-21G
 ****


