%nproc=1
%NoSave
%Mem=1900MB
#P OB98/GEN NMR

erre ene a

0 1
  C      -41.128    -102.754      30.308
  O      -40.929    -102.236      31.626
  P      -41.179    -100.666      31.829
  C      -43.752    -100.930      32.076
  O      -42.537    -100.479      32.660
  C      -44.708     -99.754      31.876
  O      -45.880    -100.140      31.125
  C      -45.241     -99.181      33.183
  O      -44.254     -98.403      33.839
  C      -46.442     -98.389      32.679
  O      -46.020     -97.130      32.128
  C      -46.973     -99.294      31.555
  N      -52.069     -99.552      31.941
  C      -51.245     -98.582      31.488
  N      -49.898     -98.589      31.421
  C      -49.405     -99.753      31.872
  C      -50.120    -100.836      32.360
  C      -51.518    -100.705      32.390
  N      -52.356    -101.689      32.864
  N      -49.266    -101.854      32.733
  C      -48.057    -101.384      32.497
  N      -48.090    -100.123      31.966
  O      -41.559    -100.160      30.359
  O      -39.995     -99.936      32.374
  H      -45.444     -97.325      31.362
  H      -40.828     -99.632      29.988
  H      -51.734     -97.677      31.135
  H      -47.135    -101.916      32.694
  H      -47.303     -98.719      30.682
  H      -47.174     -98.174      33.463
  H      -45.575     -99.991      33.843
  H      -44.176     -98.973      31.317
  H      -44.220    -101.685      32.713
  H      -53.341    -101.484      32.925
  H      -51.952    -102.515      33.282
  H      -43.523    -101.420      31.123
  P      -44.142     -98.527      35.433
  C      -41.751     -99.433      35.192
  O      -42.564     -98.399      35.714
  O      -44.411    -100.085      35.655
  O      -45.015     -97.595      36.201
  H      -43.910    -100.633      35.025
  H      -40.707     -99.206      35.423
  H      -41.870     -99.497      34.107
  H      -42.016    -100.388      35.654
  H      -40.931    -103.806      30.305
  H      -40.463    -102.264      29.628
  H      -42.139    -102.580      30.005

 3  4  5  6  7  8  9  10  11  12  22  25  29  30  31  32 0
 6-311+G(2d,p)
 ****
 33  36  37 0
 6-311+G(2d,p)
 ****
 1  2  13  14  15  16  17  18  19  20  21  23  24  26 0
 3-21G
 ****
 27  28  34  35  38  39  40  41  42  43  44  45  46  47  48 0
 3-21G
 ****


