%nproc=1
%NoSave
%Mem=1900MB
#P OB98/GEN NMR

erre ene a

0 1
  C        7.046     -35.795      -9.344
  O        7.902     -36.297     -10.351
  H        6.035     -35.667      -9.738
  H        7.015     -36.512      -8.520
  H        7.424     -34.840      -8.967
  P        8.108     -35.370     -11.644
  C        6.214     -36.689     -12.830
  O        6.723     -35.419     -12.453
  C        4.851     -36.532     -13.496
  O        3.953     -35.813     -12.627
  C        4.868     -35.751     -14.806
  O        5.292     -36.555     -15.895
  C        3.399     -35.375     -14.930
  O        2.650     -36.500     -15.424
  C        3.018     -35.089     -13.470
  N        0.432     -31.169     -11.441
  C        0.127     -32.477     -11.575
  N        0.876     -33.465     -12.108
  C        2.065     -32.991     -12.512
  C        2.528     -31.689     -12.422
  C        1.651     -30.747     -11.861
  N        1.949     -29.396     -11.791
  N        3.796     -31.583     -12.959
  C        4.083     -32.796     -13.382
  N        3.072     -33.681     -13.128
  O        9.109     -36.239     -12.547
  O        8.651     -34.008     -11.370
  H        1.721     -36.210     -15.492
  H       10.021     -35.924     -12.406
  H       -0.852     -32.771     -11.210
  H        5.002     -33.076     -13.878
  H        2.014     -35.453     -13.226
  H        3.225     -34.543     -15.618
  H        5.465     -34.836     -14.721
  H        4.433     -37.535     -13.647
  H        6.111     -37.319     -11.941
  H        1.128     -28.798     -11.824
  H        2.742     -29.113     -12.354
  H        6.922     -37.159     -13.519
  P        6.265     -35.888     -16.981
  C        4.260     -34.941     -18.311
  O        5.462     -34.649     -17.612
  O        6.281     -36.971     -18.158
  O        7.644     -35.589     -16.503
  H        7.201     -37.239     -18.348
  H        3.830     -34.032     -18.677
  H        3.570     -35.421     -17.649
  H        4.475     -35.590     -19.134

 6  7  8  9  10  11  12  13  14  15  25  28  32  33  34  35 0
 6-311+G(2d,p)
 ****
 36  39  40 0
 6-311+G(2d,p)
 ****
 1  2  3  4  5  16  17  18  19  20  21  22  23  24 0
 3-21G
 ****
 26  27  29  30  31  37  38  41  42  43  44  45  46  47  48 0
 3-21G
 ****


