%nproc=1
%NoSave
%Mem=1900MB
#P OB98/GEN NMR

erre ene a

0 1
  C       49.708      30.535       9.060
  O       50.967      30.164       8.530
  H       48.958      29.821       8.712
  H       49.433      31.534       8.713
  H       49.740      30.512      10.153
  P       52.217      31.080       8.947
  C       52.400      32.592       6.852
  O       51.951      32.474       8.196
  C       53.189      33.886       6.665
  O       52.300      35.016       6.604
  C       54.170      34.190       7.790
  O       55.371      33.453       7.627
  C       54.390      35.680       7.577
  O       55.328      35.885       6.503
  C       52.993      36.169       7.152
  N       51.873      40.423       9.798
  C       52.850      40.152       8.907
  N       53.113      38.988       8.276
  C       52.241      38.037       8.646
  C       51.192      38.166       9.544
  C       51.014      39.431      10.129
  N       50.010      39.706      11.032
  N       50.510      36.975       9.676
  C       51.103      36.156       8.830
  N       52.179      36.740       8.210
  O       53.561      30.469       8.753
  O       51.842      31.433      10.464
  H       55.396      36.847       6.351
  H       50.885      31.585      10.554
  H       53.509      40.981       8.666
  H       50.785      35.141       8.619
  H       53.051      36.925       6.362
  H       54.807      36.169       8.460
  H       53.715      34.033       8.773
  H       53.706      33.826       5.699
  H       51.549      32.571       6.163
  H       50.057      40.583      11.528
  H       49.450      38.937      11.368
  H       53.037      31.727       6.641
  P       56.061      32.730       8.880
  C       57.601      34.786       8.985
  O       56.792      33.881       9.727
  O       56.929      31.567       8.538
  O       54.842      32.305       9.821
  H       55.013      31.435      10.229
  H       58.034      35.504       9.649
  H       56.998      35.290       8.259
  H       58.379      34.244       8.489

 6  7  8  9  10  11  12  13  14  15  25  28  32  33  34  35 0
 6-311+G(2d,p)
 ****
 36  39  40 0
 6-311+G(2d,p)
 ****
 1  2  3  4  5  16  17  18  19  20  21  22  23  24 0
 3-21G
 ****
 26  27  29  30  31  37  38  41  42  43  44  45  46  47 0
 3-21G
 ****
 48 0
 3-21G
 ****


