%nproc=1
%NoSave
%Mem=1900MB
#P OB98/GEN NMR

erre ene a

0 1
  C     1704.488    -892.680     491.901
  O     1704.206    -893.070     493.242
  P     1703.185    -894.210     493.556
  C     1704.083    -894.330     496.029
  O     1702.972    -894.290     495.145
  C     1703.579    -894.780     497.395
  O     1702.962    -896.140     497.295
  C     1704.732    -894.950     498.380
  O     1704.889    -893.760     499.206
  C     1704.325    -896.200     499.217
  O     1703.421    -895.810     500.248
  C     1703.637    -897.060     498.133
  N     1704.525    -897.880     497.277
  C     1705.425    -898.760     497.907
  O     1705.509    -898.940     499.082
  N     1706.239    -899.450     497.019
  C     1706.200    -899.390     495.632
  O     1707.079    -899.830     494.897
  C     1705.061    -898.650     495.080
  C     1704.304    -897.930     495.905
  O     1704.021    -895.560     493.261
  O     1701.888    -894.170     492.814
  H     1703.933    -895.540     501.009
  H     1703.790    -895.900     492.369
  H     1706.979    -900.000     497.425
  H     1704.885    -898.690     493.994
  H     1703.480    -897.360     495.495
  H     1702.910    -897.730     498.598
  H     1705.198    -896.610     499.725
  H     1705.677    -895.170     497.876
  H     1702.859    -894.120     497.784
  H     1704.539    -893.360     496.117
  H     1704.858    -895.000     495.672
  P     1706.122    -892.830     499.003
  C     1704.706    -891.290     500.520
  O     1706.042    -891.760     500.186
  O     1706.341    -892.250     497.624
  O     1707.368    -893.760     499.429
  H     1707.778    -894.170     498.686
  H     1704.745    -890.750     501.449
  H     1704.026    -892.190     500.657
  H     1704.343    -890.670     499.720
  H     1705.209    -891.889     491.904
  H     1703.588    -892.341     491.431
  H     1704.879    -893.517     491.361

 3  4  5  6  7  8  9  10  11  12  13  23  28  29  30  31  32 0
 6-311+G(2d,p)
 ****
 33  34 0
 6-311+G(2d,p)
 ****
 1  2  14  15  16  17  18  19  20  21  22  24  25  26  27 0
 3-21G
 ****
 35  36  37  38  39  40  41  42  43  44  45 0
 3-21G
 ****


