%nproc=1
%NoSave
%Mem=1900MB
#P OB98/GEN NMR

erre ene a

0 1
  C       98.173     208.295    -120.242
  O       99.451     208.683    -120.750
  P      100.594     207.586    -121.017
  C      102.660     206.619    -119.854
  O      101.553     207.505    -119.730
  C      102.958     205.829    -118.573
  O      103.401     206.711    -117.511
  C      101.781     205.022    -118.025
  O      102.348     203.850    -117.431
  C      101.216     205.949    -116.963
  O      100.388     205.274    -116.025
  C      102.506     206.555    -116.396
  N      102.269     207.822    -115.709
  C      102.041     207.762    -114.333
  O      101.988     206.675    -113.757
  N      101.827     208.934    -113.644
  C      101.752     210.053    -114.295
  N      101.512     211.176    -113.564
  C      101.900     210.153    -115.760
  C      102.163     209.010    -116.393
  O      101.313     207.735    -122.319
  O       99.802     206.192    -120.972
  H      100.929     204.598    -115.566
  H      100.247     205.550    -121.558
  H      101.800     211.106    -116.263
  H      102.296     208.978    -117.470
  H      102.979     205.862    -115.686
  H      100.609     206.729    -117.441
  H      101.043     204.754    -118.786
  H      103.798     205.157    -118.794
  H      101.392     211.061    -112.564
  H      103.545     207.206    -120.130
  H      101.321     212.077    -113.978
  H      102.466     205.925    -120.682
  P      101.578     202.449    -117.405
  C      100.448     201.022    -115.604
  O      100.907     202.316    -115.956
  O      102.398     201.272    -117.820
  O      100.318     202.652    -118.376
  H       99.967     201.780    -118.634
  H      100.210     201.007    -114.537
  H      101.218     200.266    -115.809
  H       99.544     200.785    -116.172
  H       97.555     209.161    -120.133
  H       98.296     207.822    -119.290
  H       97.711     207.611    -120.923

 3  4  5  6  7  8  9  10  11  12  13  23  27  28  29  30  32 0
 6-311+G(2d,p)
 ****
 34  35 0
 6-311+G(2d,p)
 ****
 1  2  14  15  16  17  18  19  20  21  22  24  25  26 0
 3-21G
 ****
 31  33  36  37  38  39  40  41  42  43  44  45  46 0
 3-21G
 ****


