%nproc=1
%NoSave
%Mem=1900MB
#P OB98/GEN NMR

erre ene a

0 1
  C      614.599     138.585      -1.187
  O      614.694     138.954       0.199
  P      616.139     138.786       0.887
  C      615.499     138.340       3.362
  O      616.024     139.266       2.418
  C      614.810     139.053       4.535
  O      615.820     139.573       5.437
  C      613.913     140.230       4.130
  O      612.768     140.247       5.006
  C      614.768     141.445       4.476
  O      613.976     142.619       4.678
  C      615.484     140.943       5.721
  N      617.414     144.605       8.629
  C      616.171     143.999       8.689
  N      615.314     144.450       9.630
  N      615.799     143.034       7.874
  C      616.772     142.663       7.008
  C      618.035     143.179       6.864
  C      618.414     144.270       7.740
  O      619.484     144.893       7.709
  N      618.735     142.542       5.868
  C      617.880     141.639       5.397
  N      616.677     141.679       6.046
  O      617.014     139.936       0.183
  O      616.750     137.439       0.675
  H      614.598     143.368       4.797
  H      617.805     139.543      -0.233
  H      617.629     145.351       9.272
  H      618.075     140.966       4.570
  H      614.821     140.951       6.598
  H      615.456     141.644       3.653
  H      615.547     145.139      10.325
  H      613.582     140.223       3.083
  H      614.408     143.985       9.711
  H      614.229     138.302       5.088
  H      616.308     137.720       3.749
  H      614.788     137.684       2.844
  P      611.333     140.005       4.310
  C      610.462     142.413       3.838
  O      610.442     141.283       4.688
  O      610.705     138.832       5.179
  O      611.414     139.670       2.851
  H      610.070     138.315       4.639
  H      610.966     142.225       2.887
  H      610.994     143.227       4.350
  H      609.438     142.725       3.636
  H      613.597     138.740      -1.529
  H      614.859     137.553      -1.300
  H      615.270     139.187      -1.763

 3  4  5  6  7  8  9  10  11  12  23  26  30  31  33  0
 6-311+G(2d,p)
 ****
 35  36  37  38 0
 6-311+G(2d,p)
 ****
 1  2  13  14  15  16  17  18  19  20  21  22  24  25  27  28  29 0
 3-21G
 ****
 32  34  39  40  41  42  43  44  45  46  47  48  49 0
 3-21G
 ****


