%nproc=1
%NoSave
%Mem=1900MB
#P OB98/GEN NMR

erre ene a

0 1
  C     -107.248     -33.950     160.201
  O     -108.276     -32.979     160.330
  P     -108.196     -31.671     159.400
  C     -108.131     -29.804     161.220
  O     -107.416     -30.551     160.247
  C     -107.894     -28.305     161.023
  O     -108.810     -27.575     161.884
  C     -106.478     -27.826     161.359
  O     -106.186     -26.732     160.479
  C     -106.614     -27.313     162.782
  O     -105.585     -26.397     163.137
  C     -108.017     -26.710     162.727
  N     -108.359     -23.935     166.945
  C     -107.553     -23.759     165.833
  N     -106.776     -22.653     165.824
  N     -107.517     -24.591     164.823
  C     -108.361     -25.642     164.967
  C     -109.175     -25.944     166.035
  C     -109.235     -24.998     167.126
  O     -109.993     -25.068     168.093
  N     -109.816     -27.142     165.856
  C     -109.454     -27.520     164.646
  N     -108.609     -26.623     164.048
  O     -109.708     -31.152     159.386
  O     -107.648     -31.886     158.023
  H     -104.724     -26.844     162.998
  H     -110.192     -31.495     158.611
  H     -108.357     -23.252     167.683
  H     -109.768     -28.426     164.152
  H     -108.026     -25.704     162.292
  H     -106.577     -28.157     163.481
  H     -106.775     -21.958     166.552
  H     -105.716     -28.606     161.261
  H     -106.204     -22.487     165.007
  H     -108.149     -28.049     159.985
  H     -107.773     -30.082     162.213
  H     -109.197     -30.042     161.154
  P     -104.650     -26.295     160.308
  C     -104.890     -24.048     161.577
  O     -104.283     -25.325     161.527
  O     -104.702     -25.301     159.049
  O     -103.704     -27.421     160.053
  H     -103.869     -25.365     158.547
  H     -104.871     -23.687     162.609
  H     -105.933     -24.081     161.238
  H     -104.327     -23.350     160.949
  H     -107.433     -34.758     160.878
  H     -106.304     -33.502     160.430
  H     -107.232     -34.322     159.198

 3  4  5  6  7  8  9  10  11  12  23  26  30  31 0
 6-311+G(2d,p)
 ****
 33  35  36  37  38 0
 6-311+G(2d,p)
 ****
 1  2  13  14  15  16  17  18  19  20  21  22  24  25 0
 3-21G
 ****
 27  28  29  32  34  39  40  41  42  43  44  45  46  47  48  49 0
 3-21G
 ****


