%nproc=1
%NoSave
%Mem=1900MB
#P OB98/GEN NMR

erre ene a

0 1
  C     -220.789    -593.015     -53.190
  O     -221.977    -592.478     -53.759
  P     -222.454    -591.022     -53.269
  C     -224.703    -591.905     -52.298
  O     -223.472    -591.253     -52.044
  C     -225.681    -591.654     -51.143
  O     -226.939    -592.325     -51.443
  C     -225.212    -592.162     -49.779
  O     -225.744    -591.272     -48.784
  C     -225.895    -593.523     -49.657
  O     -226.008    -593.968     -48.306
  C     -227.234    -593.221     -50.344
  N     -231.636    -595.566     -51.200
  C     -231.378    -594.360     -50.555
  N     -232.462    -593.659     -50.152
  N     -230.182    -593.894     -50.346
  C     -229.195    -594.698     -50.831
  C     -229.320    -595.924     -51.442
  C     -230.656    -596.418     -51.704
  O     -230.932    -597.436     -52.342
  N     -228.100    -596.477     -51.713
  C     -227.234    -595.545     -51.338
  N     -227.854    -594.429     -50.842
  O     -223.396    -590.540     -54.466
  O     -221.356    -590.043     -52.974
  H     -225.102    -594.155     -47.984
  H     -222.905    -590.004     -55.114
  H     -232.584    -595.868     -51.347
  H     -226.164    -595.630     -51.410
  H     -227.946    -592.727     -49.677
  H     -225.325    -594.271     -50.221
  H     -233.407    -593.950     -50.303
  H     -224.127    -592.228     -49.677
  H     -232.292    -592.766     -49.707
  H     -225.892    -590.577     -51.094
  H     -224.526    -592.986     -52.369
  H     -225.129    -591.561     -53.239
  P     -224.743    -590.729     -47.644
  C     -225.605    -592.418     -45.877
  O     -224.500    -591.930     -46.614
  O     -225.682    -589.721     -46.821
  O     -223.533    -590.031     -48.153
  H     -225.136    -588.990     -46.458
  H     -225.382    -593.439     -45.543
  H     -226.521    -592.439     -46.475
  H     -225.769    -591.792     -44.988
  H     -220.598    -593.981     -53.608
  H     -220.909    -593.103     -52.130
  H     -219.966    -592.365     -53.403

 3  4  5  6  7  8  9  10  11  12  23  26  30  31 0
 6-311+G(2d,p)
 ****
 33  35  36  37  38 0
 6-311+G(2d,p)
 ****
 1  2  13  14  15  16  17  18  19  20  21  22  24  25 0
 3-21G
 ****
 27  28  29  32  34  39  40  41  42  43  44  45  46  47  48  49 0
 3-21G
 ****


