%nproc=1
%NoSave
%Mem=1900MB
#P OB98/GEN NMR

erre ene a

0 1
  C     -830.226    -633.254    -894.062
  O     -829.181    -633.381    -894.992
  H     -830.782    -634.196    -894.012
  H     -830.914    -632.460    -894.382
  H     -829.845    -633.024    -893.062
  P     -828.108    -632.190    -895.122
  C     -828.169    -629.700    -895.772
  O     -828.899    -630.902    -895.632
  C     -828.449    -629.075    -897.152
  O     -829.878    -628.923    -897.312
  C     -827.882    -627.650    -897.322
  O     -826.486    -627.681    -897.532
  C     -828.721    -627.149    -898.482
  O     -828.175    -627.629    -899.732
  C     -830.094    -627.777    -898.182
  N     -831.048    -626.843    -897.612
  C     -831.355    -625.714    -898.352
  O     -830.879    -625.506    -899.492
  N     -832.193    -624.828    -897.762
  C     -832.603    -624.853    -896.462
  O     -833.144    -623.910    -895.892
  C     -832.289    -626.094    -895.732
  C     -831.545    -627.020    -896.322
  O     -826.872    -632.508    -895.912
  O     -827.756    -631.828    -893.592
  H     -826.891    -632.220    -893.362
  H     -827.221    -627.434    -899.692
  H     -832.391    -623.968    -898.292
  H     -832.683    -626.193    -894.722
  H     -831.281    -627.909    -895.762
  H     -830.534    -628.194    -899.132
  H     -828.740    -626.073    -898.522
  H     -828.103    -627.061    -896.412
  H     -828.079    -629.739    -897.932
  H     -827.077    -629.933    -895.712
  H     -828.410    -629.007    -894.972
  P     -825.641    -626.316    -897.632
  C     -825.489    -624.338    -899.252
  O     -826.299    -625.402    -898.762
  O     -824.168    -626.488    -897.732
  O     -826.059    -625.548    -896.262
  H     -825.216    -625.226    -895.842
  H     -826.028    -623.795    -900.000
  H     -824.593    -624.739    -899.677
  H     -825.238    -623.681    -898.446

 6  7  8  9  10  11  12  13  14  15  16  27  31  32  33  34  35 0
 6-311+G(2d,p)
 ****
 36  37 0
 6-311+G(2d,p)
 ****
 1  2  3  4  5  17  18  19  20  21  22  23  24  25 0
 3-21G
 ****
 26  28  29  30  38  39  40  41  42  43  44  45 0
 3-21G
 ****


