%nproc=1
%NoSave
%Mem=1900MB
#P OB98/GEN NMR

erre ene a

0 1
  C       53.202     -15.958     -98.187
  O       52.209     -14.941     -98.373
  P       51.297     -14.371     -97.180
  C       49.182     -15.528     -98.099
  O       50.028     -15.334     -96.974
  C       47.880     -16.243     -97.717
  O       48.140     -17.659     -97.466
  C       47.187     -15.676     -96.464
  O       45.778     -15.721     -96.720
  C       47.593     -16.681     -95.396
  O       46.774     -16.649     -94.242
  C       47.500     -17.976     -96.211
  N       48.117     -19.148     -95.598
  C       47.270     -20.152     -95.112
  O       46.047     -20.032     -95.145
  N       47.836     -21.283     -94.571
  C       49.127     -21.402     -94.511
  N       49.619     -22.550     -93.973
  C       50.054     -20.363     -94.992
  C       49.488     -19.277     -95.518
  O       50.926     -12.932     -97.346
  O       52.157     -14.579     -95.847
  H       51.994     -13.834     -95.239
  H       46.764     -15.735     -93.905
  H       51.123     -20.504     -94.930
  H       50.103     -18.479     -95.921
  H       46.448     -18.192     -96.432
  H       48.619     -16.467     -95.084
  H       47.471     -14.644     -96.235
  H       47.203     -16.198     -98.580
  H       48.950     -23.246     -93.663
  H       49.716     -16.140     -98.833
  H       50.605     -22.751     -93.885
  H       48.964     -14.556     -98.555
  P       45.032     -14.416     -97.278
  C       43.380     -14.483     -95.262
  O       44.279     -13.722     -96.043
  O       43.803     -15.060     -98.088
  O       45.831     -13.527     -98.175
  H       43.518     -14.438     -98.783
  H       43.566     -14.271     -94.205
  H       43.492     -15.557     -95.429
  H       42.356     -14.188     -95.508
  H       53.676     -16.170     -99.123
  H       52.737     -16.846     -97.814
  H       53.935     -15.617     -97.486

 3  4  5  6  7  8  9  10  11  12  13  24  27  28  29  30  32 0
 6-311+G(2d,p)
 ****
 34  35 0
 6-311+G(2d,p)
 ****
 1  2  14  15  16  17  18  19  20  21  22  23  25  26 0
 3-21G
 ****
 31  33  36  37  38  39  40  41  42  43  44  45  46 0
 3-21G
 ****


