%nproc=1
%NoSave
%Mem=1900MB
#P OB98/GEN NMR

erre ene a

0 1
  C      405.161    1299.773    -187.649
  O      403.916    1299.333    -188.188
  P      403.600    1297.773    -188.305
  C      401.828    1297.302    -186.492
  O      402.075    1297.491    -187.871
  C      400.384    1297.712    -186.154
  O      400.304    1299.133    -185.888
  C      399.416    1297.483    -187.302
  O      399.118    1296.131    -187.628
  C      398.266    1298.391    -186.949
  O      397.382    1297.759    -186.002
  C      398.995    1299.577    -186.289
  N      399.076    1300.765    -187.161
  C      398.987    1302.003    -186.523
  O      398.814    1302.109    -185.302
  N      399.049    1303.096    -187.323
  C      399.177    1303.075    -188.709
  O      399.210    1304.088    -189.385
  C      399.235    1301.738    -189.293
  C      399.183    1300.655    -188.520
  O      404.627    1296.871    -187.678
  O      403.566    1297.535    -189.899
  H      396.854    1297.100    -186.511
  H      404.014    1296.685    -190.084
  H      399.011    1303.999    -186.882
  H      399.328    1301.694    -190.382
  H      399.246    1299.669    -188.955
  H      398.481    1299.883    -185.353
  H      397.664    1298.646    -187.826
  H      399.876    1297.898    -188.223
  H      400.073    1297.193    -185.242
  H      402.542    1297.857    -185.885
  H      401.999    1296.228    -186.253
  P      398.493    1295.689    -189.037
  C      400.507    1294.168    -189.677
  O      399.110    1294.249    -189.420
  O      398.433    1296.727    -190.123
  O      396.997    1295.281    -188.611
  H      396.397    1295.502    -189.354
  H      400.749    1293.148    -189.951
  H      401.073    1294.435    -188.765
  H      400.784    1294.814    -190.509
  H      405.192    1300.843    -187.650
  H      405.963    1299.392    -188.247
  H      405.262    1299.414    -186.646

 3  4  5  6  7  8  9  10  11  12  13  23  28  29  30  31  32 0
 6-311+G(2d,p)
 ****
 33  34 0
 6-311+G(2d,p)
 ****
 1  2  14  15  16  17  18  19  20  21  22  24  25  26  27 0
 3-21G
 ****
 35  36  37  38  39  40  41  42  43  44  45 0
 3-21G
 ****


