%nproc=1
%NoSave
%Mem=1900MB
#P OB98/GEN NMR

erre ene a

0 1
  C      -16.549     -28.829     120.202
  O      -17.379     -28.707     121.356
  P      -16.708     -28.283     122.749
  C      -15.719     -29.508     124.787
  O      -16.045     -29.589     123.405
  C      -15.284     -30.874     125.323
  O      -16.408     -31.758     125.504
  C      -14.337     -31.610     124.391
  O      -13.039     -31.044     124.435
  C      -14.444     -33.033     124.920
  O      -13.594     -33.224     126.062
  C      -15.927     -33.111     125.345
  N      -16.753     -33.866     124.416
  C      -17.230     -35.097     124.877
  O      -16.915     -35.504     125.995
  N      -18.039     -35.841     124.053
  C      -18.337     -35.396     122.871
  N      -19.143     -36.172     122.099
  C      -17.845     -34.108     122.342
  C      -17.060     -33.406     123.156
  O      -17.570     -27.478     123.663
  O      -15.422     -27.443     122.279
  H      -12.683     -33.287     125.713
  H      -15.222     -26.768     122.958
  H      -18.126     -33.780     121.352
  H      -16.651     -32.451     122.846
  H      -16.014     -33.587     126.331
  H      -14.144     -33.770     124.169
  H      -14.724     -31.568     123.364
  H      -14.802     -30.720     126.298
  H      -19.458     -37.056     122.481
  H      -16.588     -29.149     125.347
  H      -19.472     -35.891     121.187
  H      -14.928     -28.762     124.921
  P      -12.368     -30.612     123.045
  C      -11.232     -31.821     121.054
  O      -11.795     -31.933     122.347
  O      -11.045     -29.836     123.512
  O      -13.223     -29.744     122.178
  H      -10.851     -29.115     122.886
  H      -10.621     -32.709     120.862
  H      -10.599     -30.935     120.969
  H      -12.029     -31.776     120.308
  H      -17.146     -29.117     119.362
  H      -15.800     -29.572     120.378
  H      -16.078     -27.889     120.000

 3  4  5  6  7  8  9  10  11  12  13  23  27  28  29  30  32 0
 6-311+G(2d,p)
 ****
 34  35 0
 6-311+G(2d,p)
 ****
 1  2  14  15  16  17  18  19  20  21  22  24  25  26 0
 3-21G
 ****
 31  33  36  37  38  39  40  41  42  43  44  45  46 0
 3-21G
 ****


