%nproc=1
%NoSave
%Mem=1900MB
#P OB98/GEN NMR

erre ene a

0 1
  C     -448.974     -19.620     224.174
  O     -448.988     -21.043     224.293
  P     -447.774     -21.870     223.651
  C     -447.198     -23.254     225.777
  O     -447.625     -23.266     224.425
  C     -447.425     -24.624     226.433
  O     -448.843     -24.872     226.641
  C     -446.929     -25.796     225.600
  O     -445.535     -25.995     225.771
  C     -447.715     -26.952     226.225
  O     -447.089     -27.365     227.449
  C     -449.066     -26.302     226.517
  N     -453.334     -28.860     225.256
  C     -452.545     -28.895     226.357
  N     -451.422     -28.188     226.622
  C     -451.127     -27.374     225.579
  C     -451.824     -27.241     224.399
  C     -452.980     -28.037     224.244
  N     -453.757     -27.985     223.108
  N     -451.203     -26.328     223.566
  C     -450.165     -25.895     224.256
  N     -450.073     -26.516     225.482
  O     -446.486     -21.054     224.140
  O     -447.830     -21.970     222.159
  H     -447.588     -28.147     227.772
  H     -445.794     -21.073     223.438
  H     -452.885     -29.574     227.135
  H     -449.456     -25.156     223.924
  H     -449.506     -26.649     227.470
  H     -447.762     -27.827     225.575
  H     -447.216     -25.683     224.545
  H     -446.927     -24.617     227.410
  H     -447.732     -22.469     226.343
  H     -454.588     -28.570     223.081
  H     -453.518     -27.356     222.356
  H     -446.133     -22.986     225.810
  P     -444.705     -26.468     224.489
  C     -442.506     -25.153     225.003
  O     -443.160     -26.417     224.935
  O     -444.856     -25.226     223.489
  O     -445.163     -27.749     223.880
  H     -444.829     -25.550     222.558
  H     -441.594     -25.268     225.595
  H     -443.151     -24.416     225.489
  H     -442.234     -24.809     223.999
  H     -449.843     -19.214     224.648
  H     -448.973     -19.349     223.139
  H     -448.096     -19.231     224.646

 3  4  5  6  7  8  9  10  11  12  22  25  29  30  31  32 0
 6-311+G(2d,p)
 ****
 33  36  37 0
 6-311+G(2d,p)
 ****
 1  2  13  14  15  16  17  18  19  20  21  23  24  26 0
 3-21G
 ****
 27  28  34  35  38  39  40  41  42  43  44  45  46  47  48 0
 3-21G
 ****


