%nproc=1
%NoSave
%Mem=1900MB
#P OB98/GEN NMR

erre ene a

0 1
  C      -91.046     225.407     270.146
  O      -92.019     226.309     269.645
  H      -90.056     225.761     269.845
  H      -91.211     224.411     269.724
  H      -91.094     225.365     271.236
  P      -93.519     226.104     270.166
  C      -94.265     228.453     269.256
  O      -94.470     227.043     269.272
  C      -95.175     229.108     268.216
  O      -94.719     228.809     266.885
  C      -96.611     228.602     268.237
  O      -97.337     229.064     269.357
  C      -97.118     229.146     266.910
  O      -97.554     230.502     267.025
  C      -95.855     229.047     266.007
  N      -95.994     228.023     264.987
  C      -96.917     228.314     263.967
  O      -97.513     229.386     263.974
  N      -97.143     227.370     263.007
  C      -96.533     226.227     263.067
  N      -96.839     225.315     262.095
  C      -95.564     225.877     264.122
  C      -95.345     226.818     265.047
  O      -93.496     226.850     271.585
  O      -93.970     224.683     270.230
  H      -96.847     230.978     267.511
  H      -93.113     227.744     271.551
  H      -95.070     224.906     264.121
  H      -94.639     226.639     265.854
  H      -95.669     230.005     265.512
  H      -97.966     228.566     266.538
  H      -96.615     227.503     268.191
  H      -95.133     230.201     268.366
  H      -97.547     225.582     261.420
  H      -93.209     228.689     269.046
  H      -96.488     224.373     262.081
  H      -94.485     228.835     270.260
  P      -97.902     228.063     270.460
  C      -96.987     229.185     272.606
  O      -98.140     228.926     271.804
  O      -97.088     226.825     270.675
  O      -99.397     227.780     269.978
  H      -99.960     228.569     269.914
  H      -97.270     229.761     273.462
  H      -96.268     229.730     272.031
  H      -96.559     228.258     272.925

 6  7  8  9  10  11  12  13  14  15  16  26  30  31  32  33  35 0
 6-311+G(2d,p)
 ****
 37  38 0
 6-311+G(2d,p)
 ****
 1  2  3  4  5  17  18  19  20  21  22  23  24  25 0
 3-21G
 ****
 27  28  29  34  36  39  40  41  42  43  44  45  46 0
 3-21G
 ****


