%nproc=1
%NoSave
%Mem=1900MB
#P OB98/GEN NMR

erre ene a

0 1
  C     -178.398    -356.736    -352.920
  O     -177.395    -356.914    -351.919
  P     -177.632    -357.979    -350.746
  C     -175.522    -359.165    -351.660
  O     -176.810    -359.315    -351.071
  C     -174.690    -360.429    -351.417
  O     -174.502    -360.677    -350.006
  C     -175.353    -361.691    -351.949
  O     -175.435    -361.823    -353.354
  C     -174.621    -362.786    -351.192
  O     -173.380    -363.119    -351.809
  C     -174.379    -362.106    -349.821
  N     -175.295    -362.583    -348.781
  C     -174.717    -363.327    -347.754
  O     -173.523    -363.613    -347.717
  N     -175.579    -363.760    -346.780
  C     -176.928    -363.561    -346.753
  O     -177.652    -363.995    -345.863
  C     -177.483    -362.796    -347.877
  C     -176.655    -362.350    -348.829
  O     -179.050    -358.186    -350.337
  O     -176.791    -357.351    -349.528
  H     -173.558    -363.297    -352.749
  H     -177.316    -357.474    -348.713
  H     -175.174    -364.290    -346.023
  H     -178.548    -362.620    -347.890
  H     -177.046    -361.777    -349.660
  H     -173.357    -362.294    -349.475
  H     -175.211    -363.709    -351.142
  H     -176.392    -361.697    -351.589
  H     -173.698    -360.279    -351.859
  H     -175.020    -358.294    -351.232
  H     -175.642    -358.965    -352.731
  P     -176.826    -361.970    -354.141
  C     -176.372    -360.480    -356.215
  O     -177.064    -360.639    -354.997
  O     -177.989    -362.521    -353.388
  O     -176.428    -363.026    -355.289
  H     -177.206    -363.574    -355.485
  H     -176.639    -359.508    -356.652
  H     -176.644    -361.267    -356.920
  H     -175.291    -360.492    -356.038
  H     -178.076    -355.992    -353.619
  H     -179.311    -356.421    -352.459
  H     -178.558    -357.661    -353.433

 3  4  5  6  7  8  9  10  11  12  13  23  28  29  30  31  32 0
 6-311+G(2d,p)
 ****
 33  34 0
 6-311+G(2d,p)
 ****
 1  2  14  15  16  17  18  19  20  21  22  24  25  26  27 0
 3-21G
 ****
 35  36  37  38  39  40  41  42  43  44  45 0
 3-21G
 ****


