%nproc=1
%NoSave
%Mem=1900MB
#P OB98/GEN NMR

erre ene a

0 1
  C     -138.335     164.408     433.938
  O     -138.044     165.154     435.126
  P     -138.348     166.732     435.116
  C     -136.952     166.831     437.322
  O     -138.090     167.297     436.603
  C     -136.370     167.959     438.168
  O     -135.692     168.946     437.359
  C     -137.409     168.723     438.976
  O     -137.733     168.058     440.187
  C     -136.659     170.013     439.283
  O     -135.765     169.802     440.386
  C     -135.870     170.241     437.990
  N     -135.319     174.347     435.081
  C     -134.398     173.690     435.878
  N     -133.151     174.200     435.909
  N     -134.685     172.645     436.594
  C     -135.971     172.223     436.457
  C     -136.967     172.785     435.690
  C     -136.639     173.969     434.920
  O     -137.416     174.591     434.199
  N     -138.143     172.090     435.813
  C     -137.855     171.099     436.634
  N     -136.544     171.139     437.066
  O     -139.945     166.789     434.992
  O     -137.678     167.484     434.015
  H     -136.305     169.479     441.133
  H     -140.212     167.616     434.550
  H     -135.048     175.159     434.556
  H     -138.545     170.322     436.941
  H     -134.876     170.666     438.170
  H     -137.332     170.826     439.570
  H     -132.846     174.985     435.346
  H     -138.298     168.944     438.367
  H     -132.459     173.720     436.469
  H     -135.632     167.515     438.870
  H     -136.189     166.453     436.625
  H     -137.241     165.966     437.935
  P     -139.123     167.256     440.258
  C     -139.879     168.037     442.622
  O     -139.401     166.983     441.820
  O     -138.733     165.821     439.669
  O     -140.249     167.885     439.497
  H     -139.510     165.427     439.209
  H     -140.157     167.635     443.595
  H     -140.755     168.502     442.167
  H     -139.090     168.789     442.766
  H     -138.083     163.380     434.092
  H     -137.762     164.797     433.123
  H     -139.378     164.490     433.712

 3  4  5  6  7  8  9  10  11  12  23  26  30  31 0
 6-311+G(2d,p)
 ****
 33  35  36  37  38 0
 6-311+G(2d,p)
 ****
 1  2  13  14  15  16  17  18  19  20  21  22  24  25 0
 3-21G
 ****
 27  28  29  32  34  39  40  41  42  43  44  45  46  47  48  49 0
 3-21G
 ****


