%nproc=1
%NoSave
%Mem=1900MB
#P OB98/GEN NMR

erre ene a

0 1
  C     -123.853      65.248     366.260
  O     -123.030      66.114     367.020
  H     -123.473      64.226     366.364
  H     -123.815      65.533     365.204
  H     -124.885      65.283     366.622
  P     -123.517      67.639     367.152
  C     -121.832      68.587     365.374
  O     -122.257      68.534     366.725
  C     -120.318      68.803     365.293
  O     -119.655      67.531     365.526
  C     -119.840      69.335     363.935
  O     -118.740      70.220     364.157
  C     -119.341      68.082     363.225
  O     -118.406      68.389     362.199
  C     -118.784      67.269     364.406
  N     -118.700      65.839     364.109
  C     -117.972      65.474     362.968
  O     -117.455      66.345     362.260
  N     -117.889      64.148     362.635
  C     -118.524      63.264     363.334
  N     -118.421      61.967     362.933
  C     -119.341      63.605     364.518
  C     -119.373      64.897     364.851
  O     -123.595      67.824     368.741
  O     -124.790      67.945     366.433
  H     -118.823      69.018     361.570
  H     -122.828      67.454     369.212
  H     -119.863      62.833     365.065
  H     -119.942      65.235     365.713
  H     -117.777      67.626     364.673
  H     -120.184      67.552     362.766
  H     -120.630      69.850     363.382
  H     -120.013      69.474     366.105
  H     -117.869      61.781     362.101
  H     -122.339      69.402     364.848
  H     -118.918      61.204     363.370
  H     -122.109      67.645     364.893
  P     -118.743      71.666     363.467
  C     -116.207      71.856     362.963
  O     -117.317      72.366     363.702
  O     -119.927      72.524     363.758
  O     -118.688      71.304     361.899
  H     -119.288      71.918     361.430
  H     -115.327      72.410     363.214
  H     -116.402      71.952     361.915
  H     -116.061      70.824     363.206

 6  7  8  9  10  11  12  13  14  15  16  26  30  31  32  33  35 0
 6-311+G(2d,p)
 ****
 37  38 0
 6-311+G(2d,p)
 ****
 1  2  3  4  5  17  18  19  20  21  22  23  24  25 0
 3-21G
 ****
 27  28  29  34  36  39  40  41  42  43  44  45  46 0
 3-21G
 ****


