%nproc=1
%NoSave
%Mem=1900MB
#P OB98/GEN NMR

erre ene a

0 1
  C     -453.678    -266.779     144.758
  O     -454.366    -266.843     145.997
  P     -453.692    -266.156     147.278
  C     -451.863    -266.999     148.961
  O     -452.413    -267.048     147.662
  C     -450.632    -267.917     149.058
  O     -449.601    -267.423     148.151
  C     -450.007    -268.017     150.454
  O     -449.526    -269.354     150.615
  C     -448.850    -267.028     150.374
  O     -447.845    -267.287     151.341
  C     -448.396    -267.242     148.924
  N     -447.609    -266.129     148.386
  C     -446.228    -266.200     148.498
  O     -445.626    -267.127     149.035
  N     -445.534    -265.131     147.986
  C     -446.083    -263.994     147.451
  O     -445.412    -263.055     147.021
  C     -447.550    -263.958     147.408
  C     -448.235    -265.007     147.856
  O     -454.766    -266.504     148.416
  O     -453.409    -264.701     147.097
  H     -455.180    -267.371     148.298
  H     -447.236    -266.535     151.365
  H     -444.527    -265.170     148.016
  H     -448.027    -263.067     147.002
  H     -449.320    -265.008     147.841
  H     -447.820    -268.172     148.843
  H     -449.226    -266.010     150.533
  H     -450.726    -267.784     151.249
  H     -450.929    -268.920     148.695
  H     -452.601    -267.333     149.688
  H     -451.586    -265.968     149.203
  P     -449.747    -270.077     152.036
  C     -448.507    -269.982     154.346
  O     -448.749    -269.392     153.087
  O     -449.050    -271.491     151.751
  O     -451.175    -270.210     152.463
  H     -448.177    -271.411     151.345
  H     -447.576    -269.571     154.757
  H     -448.409    -271.066     154.270
  H     -449.328    -269.736     155.026
  H     -454.251    -267.279     144.005
  H     -452.724    -267.255     144.855
  H     -453.539    -265.755     144.479

 3  4  5  6  7  8  9  10  11  12  13  24  28  29  30  31  32 0
 6-311+G(2d,p)
 ****
 33  34 0
 6-311+G(2d,p)
 ****
 1  2  14  15  16  17  18  19  20  21  22  23  25  26  27 0
 3-21G
 ****
 35  36  37  38  39  40  41  42  43  44  45 0
 3-21G
 ****


