%nproc=1
%NoSave
%Mem=1900MB
#P OB98/GEN NMR

erre ene a

0 1
  C     -269.867      71.788      83.448
  O     -269.667      71.091      84.664
  P     -270.805      71.174      85.791
  C     -271.026      68.564      85.590
  O     -271.666      69.824      85.669
  C     -271.334      67.731      86.838
  O     -270.653      66.452      86.732
  C     -270.892      68.378      88.158
  O     -271.859      68.020      89.153
  C     -269.564      67.699      88.437
  O     -269.195      67.756      89.806
  C     -269.851      66.286      87.918
  N     -268.642      65.518      87.617
  C     -268.046      64.810      88.655
  O     -268.462      64.810      89.813
  N     -266.915      64.110      88.324
  C     -266.299      64.103      87.106
  O     -265.277      63.471      86.870
  C     -266.949      64.908      86.061
  C     -268.074      65.557      86.357
  O     -271.762      72.300      85.182
  O     -270.281      71.462      87.156
  H     -271.820      72.266      84.213
  H     -268.253      67.514      89.875
  H     -266.486      63.558      89.053
  H     -266.482      64.940      85.083
  H     -268.570      66.158      85.604
  H     -270.463      65.737      88.645
  H     -268.775      68.187      87.853
  H     -270.817      69.467      88.085
  H     -272.412      67.523      86.857
  H     -269.947      68.707      85.514
  H     -271.360      68.045      84.684
  P     -272.312      69.145      90.211
  C     -274.185      70.378      88.860
  O     -272.872      70.390      89.377
  O     -270.876      69.663      90.704
  O     -273.162      68.648      91.332
  H     -270.269      69.854      89.968
  H     -274.482      71.405      88.634
  H     -274.893      69.961      89.579
  H     -274.210      69.792      87.937
  H     -269.025      71.634      82.806
  H     -269.975      72.833      83.650
  H     -270.752      71.424      82.969

 3  4  5  6  7  8  9  10  11  12  13  24  28  29  30  31  32 0
 6-311+G(2d,p)
 ****
 33  34 0
 6-311+G(2d,p)
 ****
 1  2  14  15  16  17  18  19  20  21  22  23  25  26  27 0
 3-21G
 ****
 35  36  37  38  39  40  41  42  43  44  45 0
 3-21G
 ****


