%nproc=1
%NoSave
%Mem=1900MB
#P OB98/GEN NMR

erre ene a

0 1
  C      164.339      94.941    -175.636
  O      165.179      95.786    -176.413
  P      166.236      95.075    -177.392
  C      167.671      95.871    -179.405
  O      166.653      96.195    -178.463
  C      168.532      97.093    -179.705
  O      167.801      98.008    -180.533
  C      168.941      97.893    -178.477
  O      170.056      97.311    -177.813
  C      169.317      99.227    -179.109
  O      170.656      99.154    -179.634
  C      168.299      99.346    -180.257
  N      166.720     104.135    -179.783
  C      167.961     103.639    -180.141
  N      168.906     104.556    -180.440
  N      168.247     102.368    -180.195
  C      167.192     101.568    -179.910
  C      165.917     101.936    -179.542
  C      165.625     103.348    -179.434
  O      164.567     103.843    -179.063
  N      165.116     100.839    -179.345
  C      165.889      99.810    -179.634
  N      167.171     100.200    -179.949
  O      165.328      94.070    -178.244
  O      167.357      94.369    -176.706
  H      171.224      98.804    -178.918
  H      165.870      93.326    -178.570
  H      166.547     105.121    -179.775
  H      165.573      98.777    -179.622
  H      168.774      99.711    -181.174
  H      169.296     100.058    -178.399
  H      168.710     105.540    -180.540
  H      168.092      98.034    -177.795
  H      169.816     104.212    -180.736
  H      169.415      96.757    -180.262
  H      167.207      95.526    -180.337
  H      168.284      95.057    -178.998
  P      170.426      97.916    -176.368
  C      172.268      97.134    -174.713
  O      171.257      96.765    -175.632
  O      169.022      97.930    -175.605
  O      171.062      99.265    -176.414
  H      169.019      98.619    -174.913
  H      171.990      98.025    -174.146
  H      173.200      97.324    -175.251
  H      172.429      96.311    -174.012
  H      163.689      95.541    -175.034
  H      164.942      94.323    -175.004
  H      163.755      94.324    -176.286

 3  4  5  6  7  8  9  10  11  12  23  26  30  31  33  0
 6-311+G(2d,p)
 ****
 35  36  37  38 0
 6-311+G(2d,p)
 ****
 1  2  13  14  15  16  17  18  19  20  21  22  24  25  27  28  29 0
 3-21G
 ****
 32  34  39  40  41  42  43  44  45  46  47  48  49 0
 3-21G
 ****


