%nproc=1
%NoSave
%Mem=1900MB
#P OB98/GEN NMR

erre ene a

0 1
  C     -540.523     382.883     104.357
  O     -540.413     381.764     105.215
  H     -540.021     383.735     104.822
  H     -541.577     383.131     104.214
  H     -540.051     382.680     103.391
  P     -540.787     380.332     104.592
  C     -538.383     379.374     104.365
  O     -539.530     379.883     103.698
  C     -538.295     377.862     104.183
  O     -538.382     377.515     102.781
  C     -536.997     377.242     104.698
  O     -537.054     376.997     106.097
  C     -536.983     375.937     103.917
  O     -537.905     375.000     104.513
  C     -537.500     376.382     102.544
  N     -535.346     375.409      98.054
  C     -536.351     374.736      98.716
  N     -536.855     373.647      98.096
  N     -536.827     375.096      99.879
  C     -536.215     376.192     100.391
  C     -535.197     376.939      99.836
  C     -534.698     376.543      98.541
  O     -533.810     377.107      97.908
  N     -534.836     377.981     100.651
  C     -535.613     377.850     101.705
  N     -536.464     376.780     101.601
  O     -541.911     380.700     103.513
  O     -541.284     379.322     105.571
  H     -538.799     375.257     104.223
  H     -542.787     380.472     103.880
  H     -535.009     375.084      97.163
  H     -535.604     378.506     102.567
  H     -538.096     375.599     102.051
  H     -536.000     375.458     103.920
  H     -536.518     373.300      97.211
  H     -536.121     377.845     104.425
  H     -537.597     373.141      98.563
  H     -539.161     377.413     104.683
  H     -538.458     379.613     105.432
  H     -537.489     379.853     103.948
  P     -535.756     377.320     106.978
  C     -537.045     379.175     108.265
  O     -535.900     378.841     107.487
  O     -534.599     377.406     105.875
  O     -535.432     376.323     108.031
  H     -533.983     376.654     105.982
  H     -537.006     380.211     108.530
  H     -537.058     378.580     109.154
  H     -537.931     378.985     107.696

 6  7  8  9  10  11  12  13  14  15  26  29  33  34 0
 6-311+G(2d,p)
 ****
 36  38  39  40  41 0
 6-311+G(2d,p)
 ****
 1  2  3  4  5  16  17  18  19  20  21  22  23  24  25 0
 3-21G
 ****
 27  28  30  31  32  35  37  42  43  44  45  46  47 0
 3-21G
 ****
 48  49 0
 3-21G
 ****


