%nproc=1
%NoSave
%Mem=1900MB
#P OB98/GEN NMR

erre ene a

0 1
  C      630.771     521.249    -580.874
  O      630.805     520.468    -582.051
  H      630.361     520.642    -580.064
  H      630.134     522.125    -581.012
  H      631.784     521.561    -580.600
  P      631.262     521.166    -583.421
  C      629.877     519.619    -584.963
  O      631.172     520.043    -584.563
  C      629.775     518.089    -584.959
  O      629.694     517.626    -583.584
  C      628.545     517.546    -585.698
  O      628.890     516.257    -586.227
  C      627.551     517.402    -584.560
  O      626.447     516.617    -584.930
  C      628.467     516.869    -583.459
  N      627.882     516.988    -582.132
  C      627.629     515.792    -581.455
  O      627.898     514.712    -581.983
  N      627.063     515.848    -580.209
  C      626.712     516.990    -579.713
  N      626.140     516.974    -578.477
  C      626.905     518.277    -580.418
  C      627.495     518.199    -581.609
  O      632.554     521.907    -583.372
  O      630.039     522.143    -583.779
  H      625.978     517.014    -585.698
  H      630.291     523.066    -583.580
  H      626.573     519.202    -579.968
  H      627.678     519.092    -582.204
  H      628.718     515.809    -583.637
  H      627.150     518.384    -584.276
  H      628.197     518.203    -586.502
  H      630.706     517.678    -585.381
  H      626.012     516.066    -578.033
  H      629.708     520.003    -585.969
  H      625.806     517.798    -577.999
  H      629.117     520.035    -584.296
  P      628.311     515.699    -587.615
  C      628.377     513.197    -586.991
  O      628.862     514.211    -587.862
  O      628.516     516.621    -588.775
  O      626.748     515.474    -587.351
  H      626.258     515.617    -588.184
  H      628.816     512.258    -587.257
  H      627.313     513.131    -587.079
  H      628.637     513.439    -585.982

 6  7  8  9  10  11  12  13  14  15  16  26  30  31  32  33  35 0
 6-311+G(2d,p)
 ****
 37  38 0
 6-311+G(2d,p)
 ****
 1  2  3  4  5  17  18  19  20  21  22  23  24  25 0
 3-21G
 ****
 27  28  29  34  36  39  40  41  42  43  44  45  46 0
 3-21G
 ****


