%nproc=1
%NoSave
%Mem=1900MB
#P OB98/GEN NMR

erre ene a

0 1
  C     -362.311    -476.689    -606.751
  O     -362.389    -475.873    -607.923
  P     -363.197    -476.427    -609.190
  C     -363.877    -474.078    -610.020
  O     -363.204    -475.293    -610.329
  C     -363.915    -473.156    -611.244
  O     -362.559    -472.740    -611.568
  C     -364.465    -473.798    -612.525
  O     -365.871    -473.727    -612.765
  C     -363.799    -472.941    -613.603
  O     -364.558    -471.732    -613.806
  C     -362.442    -472.602    -613.000
  N     -359.177    -473.368    -616.871
  C     -360.122    -472.431    -616.660
  N     -360.952    -472.296    -615.605
  C     -360.721    -473.254    -614.694
  C     -359.792    -474.282    -614.772
  C     -358.991    -474.321    -615.922
  N     -358.032    -475.286    -616.143
  N     -359.850    -475.078    -613.641
  C     -360.819    -474.558    -612.913
  N     -361.364    -473.441    -613.494
  O     -364.522    -477.052    -608.895
  O     -362.182    -477.510    -609.798
  H     -365.453    -472.012    -614.062
  H     -362.697    -478.270    -610.131
  H     -360.235    -471.684    -617.445
  H     -361.154    -474.952    -611.961
  H     -362.143    -471.563    -613.197
  H     -363.760    -473.450    -614.568
  H     -364.128    -474.834    -612.619
  H     -364.497    -472.252    -611.002
  H     -363.366    -473.579    -609.197
  H     -357.535    -475.265    -617.019
  H     -357.922    -476.035    -615.474
  H     -364.877    -474.336    -609.658
  P     -366.862    -474.896    -612.279
  C     -368.974    -473.410    -611.831
  O     -368.336    -474.380    -612.640
  O     -366.682    -475.337    -610.868
  O     -366.603    -476.040    -613.375
  H     -366.914    -475.822    -614.263
  H     -369.862    -473.045    -612.351
  H     -368.311    -472.572    -611.635
  H     -369.286    -473.877    -610.887
  H     -361.742    -476.182    -606.000
  H     -361.835    -477.616    -606.993
  H     -363.297    -476.880    -606.383

 3  4  5  6  7  8  9  10  11  12  22  25  29  30  31  32 0
 6-311+G(2d,p)
 ****
 33  36  37 0
 6-311+G(2d,p)
 ****
 1  2  13  14  15  16  17  18  19  20  21  23  24  26 0
 3-21G
 ****
 27  28  34  35  38  39  40  41  42  43  44  45  46  47  48 0
 3-21G
 ****


