%nproc=1
%NoSave
%Mem=1900MB
#P OB98/GEN NMR

erre ene a

0 1
  C      744.374    -125.807    -273.376
  O      744.452    -127.157    -272.955
  P      745.611    -127.712    -272.010
  C      748.142    -128.049    -272.540
  O      746.793    -128.281    -272.943
  C      749.077    -129.221    -272.853
  O      748.740    -130.341    -272.010
  C      748.860    -129.702    -274.293
  O      749.508    -129.044    -275.367
  C      749.060    -131.214    -274.246
  O      750.377    -131.595    -274.663
  C      748.851    -131.554    -272.776
  N      747.001    -136.254    -272.248
  C      748.313    -135.822    -272.222
  N      749.256    -136.803    -272.228
  N      748.662    -134.561    -272.189
  C      747.616    -133.705    -272.282
  C      746.274    -134.012    -272.309
  C      745.900    -135.401    -272.305
  O      744.748    -135.836    -272.415
  N      745.499    -132.889    -272.481
  C      746.371    -131.909    -272.581
  N      747.662    -132.365    -272.519
  O      745.190    -128.518    -270.827
  O      746.253    -126.341    -271.449
  H      750.510    -131.234    -275.569
  H      746.552    -126.506    -270.533
  H      746.791    -137.243    -272.355
  H      746.122    -130.870    -272.756
  H      749.707    -132.099    -272.375
  H      748.358    -131.711    -274.927
  H      749.027    -137.768    -272.395
  H      747.787    -129.567    -274.513
  H      750.220    -136.517    -272.373
  H      750.115    -128.971    -272.624
  H      748.132    -127.834    -271.464
  H      748.516    -127.145    -273.041
  P      748.935    -128.853    -276.846
  C      748.303    -130.335    -278.834
  O      749.037    -130.243    -277.616
  O      750.051    -127.955    -277.582
  O      747.598    -128.178    -276.927
  H      749.642    -127.497    -278.346
  H      748.197    -131.391    -279.103
  H      748.855    -129.822    -279.624
  H      747.314    -129.893    -278.727
  H      743.515    -125.677    -274.000
  H      745.256    -125.553    -273.926
  H      744.293    -125.171    -272.520

 3  4  5  6  7  8  9  10  11  12  23  26  30  31 0
 6-311+G(2d,p)
 ****
 33  35  36  37  38 0
 6-311+G(2d,p)
 ****
 1  2  13  14  15  16  17  18  19  20  21  22  24  25 0
 3-21G
 ****
 27  28  29  32  34  39  40  41  42  43  44  45  46  47  48  49 0
 3-21G
 ****


