%nproc=1
%NoSave
%Mem=1900MB
#P OB98/GEN NMR

erre ene a

0 1
  C     -103.632    -221.048     125.594
  O     -102.576    -220.336     124.984
  H     -104.231    -221.525     124.814
  H     -104.274    -220.374     126.167
  H     -103.233    -221.829     126.250
  P     -101.615    -219.452     125.913
  C     -101.523    -217.412     124.328
  O     -100.804    -218.473     124.935
  C     -100.701    -216.768     123.203
  O      -99.502    -216.173     123.777
  C     -100.243    -217.764     122.121
  O     -100.147    -217.040     120.888
  C      -98.864    -218.142     122.627
  O      -98.112    -218.795     121.639
  C      -98.367    -216.779     123.120
  N      -97.217    -216.890     124.004
  C      -95.988    -217.152     123.393
  O      -95.919    -217.289     122.170
  N      -94.873    -217.281     124.180
  C      -94.984    -217.222     125.467
  N      -93.844    -217.376     126.193
  C      -96.276    -217.007     126.159
  C      -97.338    -216.844     125.372
  O     -100.769    -220.210     126.882
  O     -102.619    -218.457     126.669
  H      -98.636    -219.515     121.216
  H     -102.734    -218.747     127.595
  H      -96.319    -216.986     127.240
  H      -98.329    -216.682     125.788
  H      -98.095    -216.136     122.273
  H      -98.943    -218.838     123.471
  H     -100.919    -218.614     122.010
  H     -101.285    -215.949     122.765
  H      -92.985    -217.530     125.680
  H     -101.734    -216.670     125.108
  H      -93.815    -217.370     127.202
  H     -102.474    -217.778     123.924
  P     -101.414    -216.743     119.953
  C     -100.300    -216.935     117.630
  O     -100.917    -216.074     118.583
  O     -102.511    -215.990     120.634
  O     -101.936    -218.187     119.487
  H     -102.903    -218.148     119.357
  H     -100.017    -216.368     116.768
  H     -100.989    -217.701     117.343
  H      -99.430    -217.382     118.064

 6  7  8  9  10  11  12  13  14  15  16  26  30  31  32  33  35 0
 6-311+G(2d,p)
 ****
 37  38 0
 6-311+G(2d,p)
 ****
 1  2  3  4  5  17  18  19  20  21  22  23  24  25 0
 3-21G
 ****
 27  28  29  34  36  39  40  41  42  43  44  45  46 0
 3-21G
 ****


