%nproc=1
%NoSave
%Mem=1900MB
#P OB98/GEN NMR

erre ene a

0 1
  C      -71.372      50.382     -34.765
  O      -71.108      50.068     -33.411
  H      -70.446      50.726     -35.232
  H      -72.116      51.180     -34.835
  H      -71.726      49.497     -35.300
  P      -72.318      49.541     -32.505
  C      -74.793      50.251     -32.689
  O      -73.444      50.681     -32.570
  C      -75.683      51.426     -33.079
  O      -75.208      52.035     -34.294
  C      -77.142      51.042     -33.326
  O      -77.840      50.930     -32.096
  C      -77.597      52.222     -34.168
  O      -77.817      53.367     -33.322
  C      -76.369      52.453     -35.066
  N      -78.378      52.141     -39.708
  C      -78.660      53.015     -38.676
  N      -79.652      53.904     -38.901
  N      -78.044      53.003     -37.523
  C      -77.127      52.013     -37.419
  C      -76.771      51.079     -38.364
  C      -77.421      51.138     -39.656
  O      -77.188      50.394     -40.603
  N      -75.848      50.192     -37.872
  C      -75.619      50.614     -36.644
  N      -76.382      51.709     -36.315
  O      -71.968      49.117     -31.111
  O      -72.952      48.346     -33.357
  H      -78.250      53.036     -32.514
  H      -72.561      47.490     -33.107
  H      -78.901      52.189     -40.566
  H      -74.912      50.168     -35.955
  H      -76.232      53.509     -35.321
  H      -78.524      52.033     -34.707
  H      -80.332      53.770     -39.638
  H      -77.226      50.133     -33.928
  H      -79.908      54.519     -38.141
  H      -75.606      52.182     -32.288
  H      -75.098      49.844     -31.719
  H      -74.876      49.461     -33.443
  P      -79.059      49.898     -31.928
  C      -81.344      49.740     -33.123
  O      -80.293      50.588     -32.683
  O      -79.340      49.486     -30.523
  O      -78.694      48.685     -32.897
  H      -78.144      47.986     -32.465
  H      -82.097      50.327     -33.607
  H      -81.771      49.235     -32.282
  H      -80.956      49.019     -33.812

 6  7  8  9  10  11  12  13  14  15  26  29  33  34 0
 6-311+G(2d,p)
 ****
 36  38  39  40  41 0
 6-311+G(2d,p)
 ****
 1  2  3  4  5  16  17  18  19  20  21  22  23  24  25 0
 3-21G
 ****
 27  28  30  31  32  35  37  42  43  44  45  46  47 0
 3-21G
 ****
 48  49 0
 3-21G
 ****


