%nproc=1
%NoSave
%Mem=1900MB
#P OB98/GEN NMR

erre ene a

0 1
  C      244.065     204.528     120.361
  O      242.988     204.394     121.288
  P      241.849     203.313     120.946
  C      242.401     201.643     122.856
  O      242.417     201.906     121.454
  C      241.450     200.495     123.177
  O      241.881     199.287     122.514
  C      241.342     200.152     124.649
  O      240.459     201.009     125.353
  C      240.773     198.739     124.582
  O      239.346     198.811     124.348
  C      241.491     198.163     123.353
  N      243.726     193.575     123.008
  C      242.508     194.015     122.631
  N      241.981     195.245     122.781
  C      242.838     196.064     123.401
  C      244.108     195.742     123.886
  C      244.552     194.433     123.661
  N      245.814     194.002     124.022
  N      244.679     196.843     124.482
  C      243.803     197.808     124.355
  N      242.670     197.388     123.708
  O      241.939     203.193     119.346
  O      240.478     203.678     121.411
  H      238.969     199.326     125.068
  H      241.087     202.867     118.994
  H      241.873     193.271     122.139
  H      243.933     198.823     124.716
  H      240.841     197.524     122.758
  H      240.911     198.181     125.510
  H      242.339     200.116     125.127
  H      240.459     200.756     122.776
  H      242.076     202.540     123.382
  H      246.125     193.100     123.662
  H      246.488     194.694     124.319
  H      243.414     201.393     123.189
  P      240.875     201.419     126.860
  C      241.315     203.900     126.252
  O      241.849     202.676     126.695
  O      241.846     200.224     127.292
  O      239.719     201.586     127.785
  H      241.847     200.127     128.265
  H      242.027     204.707     126.485
  H      240.364     204.123     126.724
  H      241.183     203.879     125.164
  H      244.745     205.277     120.710
  H      243.679     204.815     119.405
  H      244.578     203.593     120.273

 3  4  5  6  7  8  9  10  11  12  22  25  29  30  31  32 0
 6-311+G(2d,p)
 ****
 33  36  37 0
 6-311+G(2d,p)
 ****
 1  2  13  14  15  16  17  18  19  20  21  23  24  26 0
 3-21G
 ****
 27  28  34  35  38  39  40  41  42  43  44  45  46  47  48 0
 3-21G
 ****


