%nproc=1
%NoSave
%Mem=1900MB
#P OB98/GEN NMR

erre ene a

0 1
  C      200.843    -447.499     -24.366
  O      200.110    -448.109     -23.292
  P      200.513    -449.532     -22.656
  C      200.030    -450.990     -24.730
  O      201.017    -450.518     -23.822
  C      200.638    -451.895     -25.813
  O      199.593    -452.716     -26.420
  C      201.352    -451.141     -26.942
  O      202.513    -451.914     -27.280
  C      200.306    -451.179     -28.050
  O      200.839    -450.931     -29.350
  C      199.765    -452.602     -27.847
  N      198.518    -452.900     -28.552
  C      198.609    -453.452     -29.833
  O      199.691    -453.624     -30.381
  N      197.438    -453.784     -30.488
  C      196.295    -453.579     -29.913
  N      195.175    -453.942     -30.612
  C      196.156    -452.989     -28.571
  C      197.291    -452.681     -27.954
  O      199.433    -450.127     -21.801
  O      201.827    -449.259     -21.786
  H      201.809    -449.822     -20.990
  H      201.399    -451.683     -29.595
  H      195.183    -452.845     -28.126
  H      197.280    -452.270     -26.946
  H      200.533    -453.332     -28.147
  H      199.551    -450.416     -27.853
  H      201.671    -450.133     -26.666
  H      201.332    -452.595     -25.319
  H      195.313    -454.353     -31.529
  H      199.563    -450.126     -25.214
  H      194.237    -453.838     -30.256
  H      199.252    -451.522     -24.172
  P      203.964    -451.421     -26.816
  C      204.877    -450.877     -29.202
  O      204.512    -450.392     -27.927
  O      204.868    -452.717     -27.109
  O      204.092    -451.007     -25.386
  H      205.638    -452.704     -26.520
  H      204.480    -450.205     -29.968
  H      204.508    -451.893     -29.389
  H      205.973    -450.878     -29.271
  H      200.391    -446.563     -24.619
  H      200.829    -448.144     -25.219
  H      201.855    -447.335     -24.059

 3  4  5  6  7  8  9  10  11  12  13  24  27  28  29  30  32 0
 6-311+G(2d,p)
 ****
 34  35 0
 6-311+G(2d,p)
 ****
 1  2  14  15  16  17  18  19  20  21  22  23  25  26 0
 3-21G
 ****
 31  33  36  37  38  39  40  41  42  43  44  45  46 0
 3-21G
 ****


