%nproc=1
%NoSave
%Mem=1900MB
#P OB98/GEN NMR

erre ene a

0 1
  C      392.147     134.497    -158.087
  O      391.642     135.522    -157.265
  P      391.797     137.085    -157.575
  C      392.942     137.546    -155.261
  O      393.010     137.662    -156.680
  C      394.088     138.316    -154.600
  O      394.016     138.110    -153.162
  C      395.459     137.778    -155.047
  O      396.438     138.788    -155.308
  C      395.802     136.754    -153.966
  O      397.180     136.427    -153.895
  C      395.195     137.400    -152.722
  N      396.647     134.961    -148.496
  C      397.253     136.022    -149.143
  N      398.501     136.351    -148.719
  N      396.694     136.671    -150.157
  C      395.507     136.164    -150.537
  C      394.810     135.117    -149.971
  C      395.419     134.429    -148.851
  O      394.956     133.416    -148.310
  N      393.668     134.820    -150.674
  C      393.690     135.672    -151.693
  N      394.807     136.478    -151.669
  O      390.538     137.874    -157.658
  O      392.452     137.052    -159.049
  H      397.304     135.836    -153.143
  H      392.121     137.829    -159.524
  H      397.159     134.451    -147.790
  H      392.954     135.721    -152.477
  H      395.879     138.117    -152.271
  H      395.269     135.828    -154.226
  H      398.992     135.776    -148.053
  H      395.372     137.262    -156.021
  H      399.049     136.948    -149.337
  H      393.965     139.388    -154.798
  H      393.006     136.478    -155.028
  H      391.974     137.897    -154.894
  P      397.827     138.661    -156.057
  C      399.117     139.587    -154.036
  O      399.001     138.519    -154.968
  O      398.095     140.122    -156.680
  O      397.861     137.628    -157.138
  H      398.486     140.038    -157.573
  H      400.089     139.506    -153.537
  H      398.333     139.507    -153.290
  H      399.046     140.549    -154.546
  H      391.910     133.546    -157.657
  H      393.209     134.597    -158.169
  H      391.706     134.569    -159.059

 3  4  5  6  7  8  9  10  11  12  23  26  30  31 0
 6-311+G(2d,p)
 ****
 33  35  36  37  38 0
 6-311+G(2d,p)
 ****
 1  2  13  14  15  16  17  18  19  20  21  22  24  25 0
 3-21G
 ****
 27  28  29  32  34  39  40  41  42  43  44  45  46  47  48  49 0
 3-21G
 ****


