%nproc=1
%NoSave
%Mem=1900MB
#P OB98/GEN NMR

erre ene a

0 1
  C      675.435     442.502     138.806
  O      675.881     441.314     139.437
  H      674.776     443.038     139.493
  H      674.874     442.259     137.898
  H      676.287     443.142     138.559
  P      676.785     440.331     138.542
  C      675.004     438.468     138.942
  O      676.361     438.873     139.051
  C      674.794     437.147     139.674
  O      675.597     436.106     139.074
  C      675.209     437.178     141.151
  O      674.242     437.802     141.982
  C      675.322     435.689     141.423
  O      674.011     435.118     141.571
  C      676.016     435.193     140.134
  N      677.468     435.160     140.239
  C      678.022     434.245     141.138
  O      677.286     433.524     141.823
  N      679.388     434.185     141.283
  C      680.147     434.965     140.581
  N      681.491     434.883     140.765
  C      679.620     435.937     139.591
  C      678.288     435.978     139.478
  O      678.257     440.502     139.161
  O      676.705     440.535     137.067
  H      674.141     434.196     141.871
  H      678.865     439.839     138.755
  H      680.279     436.574     139.039
  H      677.824     436.669     138.779
  H      675.659     434.192     139.863
  H      675.876     435.476     142.349
  H      676.196     437.640     141.284
  H      673.739     436.856     139.563
  H      681.829     434.253     141.484
  H      674.765     438.349     137.882
  H      682.141     435.566     140.396
  H      674.346     439.222     139.374
  P      674.766     438.794     143.118
  C      674.696     436.923     144.920
  O      674.247     438.208     144.525
  O      673.871     440.101     142.918
  O      676.237     439.102     143.066
  H      674.394     440.910     143.054
  H      674.269     436.672     145.869
  H      675.763     436.927     144.998
  H      674.394     436.200     144.191

 6  7  8  9  10  11  12  13  14  15  16  26  30  31  32  33  35 0
 6-311+G(2d,p)
 ****
 37  38 0
 6-311+G(2d,p)
 ****
 1  2  3  4  5  17  18  19  20  21  22  23  24  25 0
 3-21G
 ****
 27  28  29  34  36  39  40  41  42  43  44  45  46 0
 3-21G
 ****


