%nproc=1
%NoSave
%Mem=1900MB
#P OB98/GEN NMR

erre ene a

0 1
  C      -98.310     270.980     223.623
  O      -98.890     272.056     224.333
  H      -98.739     270.917     222.618
  H      -97.232     271.151     223.536
  H      -98.475     270.038     224.161
  P     -100.482     271.992     224.550
  C      -99.963     271.818     227.084
  O     -100.759     272.427     226.073
  C      -99.940     272.694     228.336
  O      -99.435     274.007     227.957
  C     -101.318     272.880     228.996
  O     -101.244     272.607     230.405
  C     -101.628     274.358     228.806
  O     -102.353     274.918     229.898
  C     -100.238     274.971     228.664
  N      -99.818     280.031     229.162
  C      -99.377     279.018     229.941
  N      -99.434     277.690     229.702
  C      -99.994     277.450     228.502
  C     -100.469     278.379     227.591
  C     -100.383     279.727     227.970
  N     -100.880     280.761     227.202
  N     -100.984     277.748     226.466
  C     -100.857     276.461     226.717
  N     -100.281     276.226     227.939
  O     -100.787     270.417     224.544
  O     -101.277     272.710     223.514
  H     -101.830     274.757     230.704
  H     -101.389     270.218     223.802
  H      -98.920     279.311     230.884
  H     -101.209     275.656     226.077
  H      -99.763     275.153     229.638
  H     -102.218     274.482     227.891
  H     -102.092     272.248     228.552
  H      -99.227     272.267     229.050
  H      -98.939     271.692     226.716
  H     -100.884     281.682     227.601
  H     -101.405     280.531     226.365
  H     -100.377     270.830     227.318
  P     -101.613     271.104     230.860
  C      -99.623     269.786     231.892
  O     -100.681     270.721     232.109
  O     -101.048     270.215     229.654
  O     -103.076     270.886     231.061
  H     -101.766     269.664     229.280
  H      -99.092     269.630     232.808
  H      -98.953     270.171     231.152
  H     -100.032     268.857     231.554

 6  7  8  9  10  11  12  13  14  15  25  28  32  33  34  35 0
 6-311+G(2d,p)
 ****
 36  39  40 0
 6-311+G(2d,p)
 ****
 1  2  3  4  5  16  17  18  19  20  21  22  23  24 0
 3-21G
 ****
 26  27  29  30  31  37  38  41  42  43  44  45  46  47  48 0
 3-21G
 ****


