%nproc=1
%NoSave
%Mem=1900MB
#P OB98/GEN NMR

erre ene a

0 1
  C      158.349    -137.053     410.745
  O      158.395    -135.755     411.309
  P      157.753    -134.550     410.456
  C      160.104    -133.640     409.816
  O      158.844    -134.119     409.355
  C      161.050    -133.388     408.643
  O      162.333    -132.939     409.165
  C      161.322    -134.617     407.754
  O      161.472    -134.138     406.419
  C      162.636    -135.126     408.313
  O      163.328    -136.021     407.455
  C      163.342    -133.800     408.593
  N      168.442    -134.098     408.933
  C      167.619    -133.886     407.874
  N      166.271    -133.810     407.869
  C      165.776    -133.973     409.107
  C      166.488    -134.212     410.269
  C      167.886    -134.275     410.148
  N      168.723    -134.507     411.229
  N      165.637    -134.347     411.347
  C      164.431    -134.191     410.844
  N      164.467    -133.944     409.493
  O      157.768    -133.328     411.491
  O      156.376    -134.816     409.923
  H      164.190    -136.266     407.852
  H      156.964    -132.783     411.404
  H      168.104    -133.763     406.915
  H      163.511    -134.267     411.404
  H      163.710    -133.329     407.677
  H      162.447    -135.665     409.249
  H      160.513    -135.357     407.781
  H      160.642    -132.572     408.036
  H      160.551    -134.401     410.462
  H      169.682    -134.730     411.004
  H      168.293    -134.835     412.079
  H      159.953    -132.736     410.407
  P      161.239    -135.151     405.194
  C      163.786    -135.175     404.810
  O      162.639    -135.942     405.084
  O      161.343    -134.155     403.946
  O      159.994    -135.961     405.244
  H      162.147    -133.601     403.992
  H      164.667    -135.814     404.860
  H      163.892    -134.366     405.546
  H      163.715    -134.750     403.800
  H      158.808    -137.750     411.415
  H      158.874    -137.056     409.813
  H      157.330    -137.335     410.581

 3  4  5  6  7  8  9  10  11  12  22  25  29  30  31  32 0
 6-311+G(2d,p)
 ****
 33  36  37 0
 6-311+G(2d,p)
 ****
 1  2  13  14  15  16  17  18  19  20  21  23  24  26 0
 3-21G
 ****
 27  28  34  35  38  39  40  41  42  43  44  45  46  47  48 0
 3-21G
 ****


