%nproc=1
%NoSave
%Mem=1900MB
#P OB98/GEN NMR

erre ene a

0 1
  C      -23.311     429.674      19.969
  O      -22.211     428.794      19.847
  H      -24.133     429.289      19.361
  H      -23.045     430.672      19.608
  H      -23.643     429.731      21.010
  P      -20.854     429.159      20.616
  C      -21.702     428.374      22.927
  O      -21.272     429.472      22.134
  C      -21.390     428.630      24.397
  O      -22.058     427.659      25.228
  C      -19.905     428.545      24.750
  O      -19.246     429.757      24.422
  C      -19.985     428.313      26.249
  O      -20.292     429.552      26.913
  C      -21.185     427.350      26.354
  N      -20.643     423.083      29.044
  C      -20.877     424.376      29.472
  N      -20.946     424.563      30.807
  N      -21.018     425.395      28.665
  C      -20.855     425.071      27.361
  C      -20.603     423.833      26.817
  C      -20.516     422.702      27.718
  O      -20.334     421.536      27.378
  N      -20.408     423.909      25.463
  C      -20.592     425.184      25.181
  N      -20.859     425.935      26.303
  O      -20.006     430.222      19.987
  O      -20.080     427.763      20.733
  H      -19.679     430.224      26.567
  H      -19.474     427.632      19.980
  H      -20.536     422.342      29.716
  H      -20.552     425.617      24.187
  H      -21.761     427.511      27.271
  H      -19.052     427.941      26.671
  H      -20.697     423.850      31.480
  H      -19.431     427.678      24.279
  H      -21.057     425.513      31.141
  H      -21.799     429.612      24.663
  H      -21.172     427.485      22.572
  H      -22.779     428.211      22.803
  P      -17.656     429.919      24.585
  C      -16.944     429.811      22.103
  O      -17.019     429.135      23.342
  O      -17.120     429.517      25.919
  O      -17.371     431.440      24.198
  H      -17.490     432.061      24.960
  H      -16.500     429.168      21.372
  H      -16.347     430.692      22.213
  H      -17.929     430.085      21.786

 6  7  8  9  10  11  12  13  14  15  26  29  33  34 0
 6-311+G(2d,p)
 ****
 36  38  39  40  41 0
 6-311+G(2d,p)
 ****
 1  2  3  4  5  16  17  18  19  20  21  22  23  24  25 0
 3-21G
 ****
 27  28  30  31  32  35  37  42  43  44  45  46  47 0
 3-21G
 ****
 48  49 0
 3-21G
 ****


