%nproc=1
%NoSave
%Mem=1900MB
#P OB98/GEN NMR

erre ene a

0 1
  C      125.634    -132.332     -29.444
  O      126.388    -131.284     -28.868
  H      124.643    -132.345     -28.983
  H      126.123    -133.291     -29.255
  H      125.523    -132.175     -30.521
  P      127.818    -130.977     -29.521
  C      129.190    -132.130     -27.602
  O      128.839    -132.094     -28.980
  C      130.245    -133.207     -27.361
  O      129.709    -134.525     -27.596
  C      131.434    -133.127     -28.303
  O      132.273    -132.027     -28.032
  C      132.082    -134.478     -28.045
  O      132.844    -134.464     -26.830
  C      130.837    -135.389     -27.900
  N      130.595    -136.197     -29.087
  C      130.375    -137.562     -28.861
  O      130.384    -138.010     -27.714
  N      130.182    -138.383     -29.942
  C      130.181    -137.888     -31.139
  N      129.993    -138.757     -32.167
  C      130.382    -136.453     -31.420
  C      130.587    -135.675     -30.359
  O      128.285    -129.663     -28.740
  O      127.824    -130.847     -31.009
  H      133.048    -135.397     -26.623
  H      128.262    -129.756     -27.773
  H      130.364    -136.082     -32.435
  H      130.743    -134.611     -30.476
  H      130.955    -136.067     -27.045
  H      132.766    -134.765     -28.846
  H      131.090    -133.111     -29.346
  H      130.559    -133.147     -26.311
  H      129.880    -139.737     -31.938
  H      128.308    -132.306     -26.978
  H      130.006    -138.492     -33.141
  H      129.589    -131.145     -27.338
  P      132.833    -131.113     -29.224
  C      134.994    -132.508     -29.332
  O      133.860    -132.031     -30.049
  O      133.381    -129.790     -28.807
  O      131.588    -131.015     -30.227
  H      131.275    -131.870     -30.573
  H      135.601    -133.104     -29.981
  H      134.668    -133.102     -28.503
  H      135.564    -131.677     -28.973

 6  7  8  9  10  11  12  13  14  15  16  26  30  31  32  33  35 0
 6-311+G(2d,p)
 ****
 37  38 0
 6-311+G(2d,p)
 ****
 1  2  3  4  5  17  18  19  20  21  22  23  24  25 0
 3-21G
 ****
 27  28  29  34  36  39  40  41  42  43  44  45  46 0
 3-21G
 ****


