%nproc=1
%NoSave
%Mem=1900MB
#P OB98/GEN NMR

erre ene a

0 1
  C      500.405    -410.537    -323.799
  O      500.713    -409.334    -324.502
  P      500.402    -407.918    -323.812
  C      502.880    -407.174    -323.707
  O      501.680    -407.440    -322.977
  C      503.533    -405.891    -323.184
  O      502.941    -404.711    -323.782
  C      503.358    -405.689    -321.687
  O      504.071    -406.588    -320.839
  C      503.634    -404.214    -321.517
  O      505.034    -403.943    -321.438
  C      503.043    -403.637    -322.830
  N      501.741    -402.987    -322.624
  C      501.768    -401.600    -322.515
  O      502.801    -400.933    -322.538
  N      500.550    -401.001    -322.332
  C      499.341    -401.643    -322.215
  O      498.283    -401.047    -322.034
  C      499.384    -403.104    -322.311
  C      500.559    -403.705    -322.511
  O      499.098    -407.830    -323.095
  O      500.416    -406.914    -325.066
  H      505.393    -404.452    -320.693
  H      499.678    -406.279    -324.943
  H      500.539    -399.990    -322.258
  H      498.452    -403.639    -322.228
  H      500.615    -404.777    -322.587
  H      503.725    -402.893    -323.258
  H      503.179    -403.820    -320.600
  H      502.293    -405.850    -321.454
  H      504.593    -405.901    -323.471
  H      502.651    -407.083    -324.771
  H      503.552    -408.038    -323.602
  P      503.466    -408.002    -320.357
  C      505.176    -409.351    -321.766
  O      503.825    -409.100    -321.468
  O      502.082    -408.008    -319.803
  O      504.497    -408.383    -319.169
  H      503.997    -408.885    -318.500
  H      505.239    -410.116    -322.552
  H      505.709    -409.718    -320.890
  H      505.649    -408.440    -322.140
  H      500.675    -411.380    -324.400
  H      499.356    -410.569    -323.589
  H      500.953    -410.564    -322.881

 3  4  5  6  7  8  9  10  11  12  13  23  28  29  30  31  32 0
 6-311+G(2d,p)
 ****
 33  34 0
 6-311+G(2d,p)
 ****
 1  2  14  15  16  17  18  19  20  21  22  24  25  26  27 0
 3-21G
 ****
 35  36  37  38  39  40  41  42  43  44  45 0
 3-21G
 ****


