%nproc=1
%NoSave
%Mem=1900MB
#P OB98/GEN NMR

erre ene a

0 1
  C      444.727     113.013    -384.684
  O      443.635     113.890    -384.477
  P      443.387     115.043    -385.568
  C      441.610     114.046    -387.178
  O      441.870     114.892    -386.064
  C      440.145     114.137    -387.616
  O      439.332     113.370    -386.689
  C      439.593     115.561    -387.667
  O      438.700     115.646    -388.780
  C      438.786     115.673    -386.385
  O      437.770     116.666    -386.485
  C      438.277     114.234    -386.226
  N      437.905     113.921    -384.849
  C      436.542     113.767    -384.575
  O      435.711     113.966    -385.465
  N      436.149     113.444    -383.300
  C      437.035     113.391    -382.353
  N      436.603     113.071    -381.102
  C      438.476     113.676    -382.570
  C      438.830     113.909    -383.830
  O      444.239     114.536    -386.826
  O      443.795     116.413    -385.122
  H      437.328     116.740    -385.610
  H      444.603     115.294    -387.331
  H      439.162     113.656    -381.734
  H      439.871     114.105    -384.087
  H      437.400     114.063    -386.862
  H      439.452     115.940    -385.551
  H      440.374     116.319    -387.761
  H      440.057     113.658    -388.601
  H      435.615     112.891    -380.979
  H      441.825     113.012    -386.900
  H      437.221     113.004    -380.304
  H      442.277     114.328    -388.004
  P      438.694     117.008    -389.635
  C      439.962     115.457    -391.244
  O      439.099     116.569    -391.118
  O      440.051     117.706    -389.120
  O      437.529     117.928    -389.483
  H      440.134     118.592    -389.527
  H      440.046     115.192    -392.295
  H      439.571     114.606    -390.681
  H      440.967     115.716    -390.860
  H      444.770     112.302    -383.885
  H      445.637     113.576    -384.710
  H      444.600     112.498    -385.613

 3  4  5  6  7  8  9  10  11  12  13  21  23  27  28  29  30  32 0
 6-311+G(2d,p)
 ****
 34  35 0
 6-311+G(2d,p)
 ****
 1  2  14  15  16  17  18  19  20  22  24  25  26 0
 3-21G
 ****
 31  33  36  37  38  39  40  41  42  43  44  45  46 0
 3-21G
 ****


