%nproc=1
%NoSave
%Mem=1900MB
#P OB98/GEN NMR

erre ene a

0 1
  C     -637.965     520.075     188.377
  O     -637.421     519.148     187.464
  P     -638.007     518.921     185.990
  C     -639.452     516.806     186.456
  O     -639.436     518.190     186.116
  C     -640.832     516.147     186.216
  O     -641.806     516.766     187.076
  C     -641.289     516.397     184.783
  O     -640.835     515.556     183.738
  C     -642.805     516.542     184.881
  O     -643.505     515.346     184.541
  C     -643.033     516.913     186.345
  N     -646.700     520.238     185.239
  C     -646.694     518.868     185.068
  N     -647.711     518.357     184.352
  N     -645.755     518.084     185.549
  C     -644.759     518.755     186.171
  C     -644.653     520.109     186.405
  C     -645.717     520.963     185.910
  O     -645.722     522.187     185.965
  N     -643.466     520.440     186.994
  C     -642.820     519.296     187.076
  N     -643.543     518.260     186.557
  O     -637.046     518.434     184.945
  O     -638.436     520.428     185.588
  H     -644.465     515.503     184.660
  H     -638.288     520.520     184.630
  H     -647.396     520.807     184.768
  H     -641.811     519.170     187.486
  H     -643.750     516.217     186.808
  H     -643.157     517.314     184.182
  H     -648.358     518.941     183.841
  H     -640.926     517.396     184.496
  H     -647.646     517.384     184.065
  H     -640.811     515.094     186.508
  H     -639.152     516.720     187.504
  H     -638.703     516.280     185.861
  P     -640.433     516.032     182.260
  C     -642.985     516.036     182.021
  O     -641.759     516.514     181.499
  O     -640.069     514.657     181.495
  O     -639.289     516.987     182.198
  H     -639.481     514.852     180.732
  H     -643.765     516.160     181.280
  H     -643.246     516.618     182.920
  H     -642.910     514.981     182.291
  H     -637.407     520.046     189.290
  H     -638.986     519.823     188.575
  H     -637.915     521.059     187.959

 3  4  5  6  7  8  9  10  11  12  23  26  30  31 0
 6-311+G(2d,p)
 ****
 33  35  36  37  38 0
 6-311+G(2d,p)
 ****
 1  2  13  14  15  16  17  18  19  20  21  22  24  25 0
 3-21G
 ****
 27  28  29  32  34  39  40  41  42  43  44  45  46  47  48  49 0
 3-21G
 ****


