%nproc=1
%NoSave
%Mem=1900MB
#P OB98/GEN NMR

erre ene a

0 1
  C      -48.858    -209.935      48.524
  O      -48.031    -211.015      48.904
  H      -48.455    -209.441      47.635
  H      -49.855    -210.320      48.294
  H      -48.938    -209.216      49.345
  P      -46.489    -210.668      49.183
  C      -46.443    -212.367      51.139
  O      -45.858    -211.949      49.914
  C      -46.534    -213.885      51.189
  O      -47.559    -214.354      50.287
  C      -45.264    -214.616      50.767
  O      -44.294    -214.636      51.804
  C      -45.818    -216.007      50.490
  O      -45.973    -216.722      51.731
  C      -47.196    -215.701      49.884
  N      -48.360    -218.636      45.835
  C      -48.450    -218.863      47.163
  N      -48.112    -218.043      48.182
  C      -47.651    -216.868      47.716
  C      -47.503    -216.497      46.389
  C      -47.874    -217.444      45.421
  N      -47.764    -217.213      44.065
  N      -47.012    -215.215      46.294
  C      -46.865    -214.815      47.540
  N      -47.233    -215.781      48.437
  O      -46.558    -209.572      50.349
  O      -45.726    -210.163      48.003
  H      -46.228    -217.634      51.496
  H      -45.840    -208.922      50.218
  H      -48.851    -219.832      47.454
  H      -46.504    -213.835      47.838
  H      -47.967    -216.370      50.282
  H      -45.171    -216.607      49.848
  H      -44.854    -214.199      49.841
  H      -46.829    -214.174      52.206
  H      -47.450    -211.944      51.224
  H      -48.224    -217.842      43.430
  H      -47.405    -216.312      43.766
  H      -45.832    -211.994      51.968
  P      -42.747    -214.563      51.373
  C      -42.106    -213.345      53.572
  O      -41.922    -214.490      52.745
  O      -42.607    -213.083      50.777
  O      -42.315    -215.600      50.393
  H      -41.868    -213.050      50.141
  H      -41.496    -213.435      54.446
  H      -43.134    -213.275      53.860
  H      -41.826    -212.465      53.031

 6  7  8  9  10  11  12  13  14  15  25  28  32  33  34  35 0
 6-311+G(2d,p)
 ****
 36  39  40 0
 6-311+G(2d,p)
 ****
 1  2  3  4  5  16  17  18  19  20  21  22  23  24 0
 3-21G
 ****
 26  27  29  30  31  37  38  41  42  43  44  45  46  47  48 0
 3-21G
 ****


