%nproc=1
%NoSave
%Mem=1900MB
#P OB98/GEN NMR

erre ene a

0 1
  C     -175.083     -18.183     343.399
  O     -174.168     -17.090     343.282
  P     -173.046     -16.941     344.424
  C     -174.540     -16.271     346.464
  O     -173.782     -17.276     345.812
  C     -174.996     -16.743     347.853
  O     -173.862     -16.718     348.774
  C     -176.120     -15.900     348.473
  O     -176.974     -16.813     349.184
  C     -175.379     -15.001     349.446
  O     -176.237     -14.505     350.468
  C     -174.277     -15.960     349.927
  N     -173.151     -15.260     350.544
  C     -173.014     -15.378     351.921
  O     -173.827     -15.975     352.627
  N     -171.930     -14.752     352.473
  C     -171.033     -13.970     351.805
  O     -170.077     -13.430     352.346
  C     -171.299     -13.788     350.365
  C     -172.326     -14.426     349.817
  O     -172.834     -15.358     344.458
  O     -171.818     -17.744     344.138
  H     -173.652     -14.850     344.319
  H     -176.497     -15.246     351.052
  H     -171.787     -14.857     353.469
  H     -170.636     -13.126     349.809
  H     -172.559     -14.297     348.762
  H     -174.679     -16.668     350.661
  H     -174.945     -14.149     348.914
  H     -176.705     -15.352     347.727
  H     -175.319     -17.786     347.759
  H     -175.426     -16.025     345.870
  H     -173.936     -15.348     346.540
  P     -178.279     -17.373     348.428
  C     -179.927     -15.333     348.390
  O     -178.976     -16.125     347.711
  O     -179.236     -17.634     349.696
  O     -178.062     -18.600     347.605
  H     -179.260     -16.894     350.314
  H     -180.098     -14.415     347.825
  H     -179.569     -15.068     349.389
  H     -180.877     -15.875     348.476
  H     -175.770     -18.162     342.579
  H     -175.623     -18.099     344.319
  H     -174.540     -19.105     343.387

 3  4  5  6  7  8  9  10  11  12  13  24  28  29  30  31  32 0
 6-311+G(2d,p)
 ****
 33  34 0
 6-311+G(2d,p)
 ****
 1  2  14  15  16  17  18  19  20  21  22  23  25  26  27 0
 3-21G
 ****
 35  36  37  38  39  40  41  42  43  44  45 0
 3-21G
 ****


