%nproc=1
%NoSave
%Mem=1900MB
#P OB98/GEN NMR

erre ene a

0 1
  C      -41.549     115.053    -106.886
  O      -40.677     115.401    -107.939
  H      -42.119     115.938    -106.594
  H      -40.974     114.709    -106.023
  H      -42.246     114.272    -107.204
  P      -39.850     114.217    -108.637
  C      -41.893     113.262    -109.924
  O      -40.900     113.037    -108.936
  C      -41.956     112.081    -110.894
  O      -42.485     110.927    -110.191
  C      -42.843     112.335    -112.115
  O      -42.231     111.732    -113.258
  C      -44.129     111.601    -111.784
  O      -44.861     111.220    -112.949
  C      -43.609     110.430    -110.940
  N      -44.650     109.896    -110.067
  C      -45.357     108.787    -110.538
  O      -45.099     108.311    -111.646
  N      -46.377     108.278    -109.777
  C      -46.719     108.876    -108.679
  N      -47.758     108.341    -107.982
  C      -46.046     110.090    -108.177
  C      -45.026     110.535    -108.908
  O      -38.968     113.626    -107.442
  O      -39.023     114.620    -109.811
  H      -44.939     112.004    -113.534
  H      -38.115     113.282    -107.768
  H      -46.385     110.569    -107.270
  H      -44.476     111.424    -108.623
  H      -43.244     109.621    -111.587
  H      -44.775     112.247    -111.178
  H      -43.014     113.397    -112.311
  H      -40.934     111.828    -111.199
  H      -48.206     107.519    -108.369
  H      -41.639     114.168    -110.485
  H      -48.138     108.749    -107.142
  H      -42.863     113.409    -109.439
  P      -42.114     112.639    -114.575
  C      -39.530     112.899    -114.544
  O      -40.795     113.540    -114.446
  O      -43.310     113.687    -114.410
  O      -42.230     111.865    -115.847
  H      -44.020     113.486    -115.046
  H      -38.752     113.627    -114.439
  H      -39.445     112.421    -115.498
  H      -39.440     112.167    -113.769

 6  7  8  9  10  11  12  13  14  15  16  26  30  31  32  33  35 0
 6-311+G(2d,p)
 ****
 37  38 0
 6-311+G(2d,p)
 ****
 1  2  3  4  5  17  18  19  20  21  22  23  24  25 0
 3-21G
 ****
 27  28  29  34  36  39  40  41  42  43  44  45  46 0
 3-21G
 ****


