%nproc=1
%NoSave
%Mem=1900MB
#P OB98/GEN NMR

erre ene a

0 1
  C      818.645    -802.811    -852.199
  O      818.894    -803.425    -850.935
  P      817.777    -803.271    -849.777
  C      815.223    -803.313    -850.167
  O      816.450    -804.032    -850.269
  C      814.024    -804.202    -850.544
  O      814.235    -804.718    -851.902
  C      813.837    -805.442    -849.644
  O      813.016    -805.308    -848.501
  C      813.076    -806.388    -850.602
  O      811.686    -806.067    -850.589
  C      813.659    -806.046    -851.967
  N      814.560    -810.778    -853.769
  C      813.418    -810.142    -853.448
  N      813.264    -808.875    -852.978
  C      814.460    -808.263    -852.846
  C      815.699    -808.796    -853.154
  C      815.738    -810.107    -853.612
  N      816.903    -810.773    -853.959
  N      816.686    -807.864    -852.893
  C      816.050    -806.799    -852.437
  N      814.692    -806.995    -852.406
  O      817.558    -801.900    -849.258
  O      818.327    -804.253    -848.648
  H      811.214    -806.864    -850.929
  H      818.150    -803.846    -847.769
  H      812.495    -810.704    -853.593
  H      816.529    -805.889    -852.121
  H      812.905    -806.023    -852.762
  H      813.169    -807.432    -850.308
  H      814.798    -805.892    -849.385
  H      813.107    -803.595    -850.546
  H      815.252    -802.452    -850.831
  H      816.826    -811.733    -854.241
  H      817.784    -810.315    -853.780
  H      815.160    -802.936    -849.146
  P      813.570    -804.558    -847.166
  C      812.678    -802.383    -846.011
  O      812.927    -803.091    -847.196
  O      815.070    -804.584    -846.990
  O      812.771    -805.296    -846.002
  H      811.813    -805.098    -845.997
  H      812.451    -801.343    -846.254
  H      813.581    -802.407    -845.359
  H      811.828    -802.835    -845.472
  H      819.469    -803.000    -852.856
  H      818.529    -801.756    -852.066
  H      817.751    -803.217    -852.623

 3  4  5  6  7  8  9  10  11  12  22  25  29  30  31  32 0
 6-311+G(2d,p)
 ****
 33  36  37 0
 6-311+G(2d,p)
 ****
 1  2  13  14  15  16  17  18  19  20  21  23  24  26 0
 3-21G
 ****
 27  28  34  35  38  39  40  41  42  43  44  45  46  47  48 0
 3-21G
 ****


