%nproc=1
%NoSave
%Mem=1900MB
#P OB98/GEN NMR

erre ene a

0 1
  C     -110.067    -890.915      -5.570
  O     -110.161    -892.255      -5.117
  H     -111.018    -890.415      -5.385
  H     -109.866    -890.905      -6.648
  H     -109.274    -890.385      -5.032
  P     -108.815    -893.125      -5.139
  C     -110.199    -895.345      -4.906
  O     -109.219    -894.605      -5.618
  C     -110.644    -896.555      -5.724
  O     -111.396    -896.165      -6.881
  C     -109.479    -897.365      -6.312
  O     -108.770    -898.085      -5.331
  C     -110.227    -898.235      -7.306
  O     -110.870    -899.335      -6.658
  C     -111.283    -897.235      -7.851
  N     -110.939    -896.735      -9.180
  C     -111.487    -897.435     -10.263
  O     -112.222    -898.415     -10.066
  N     -111.166    -897.035     -11.538
  C     -110.386    -896.005     -11.721
  N     -110.103    -895.665     -13.003
  C     -109.810    -895.235     -10.614
  C     -110.122    -895.645      -9.383
  O     -108.507    -893.325      -3.578
  O     -107.690    -892.535      -5.924
  H     -110.187    -899.805      -6.139
  H     -109.252    -893.705      -3.075
  H     -109.174    -894.375     -10.813
  H     -109.737    -895.125      -8.513
  H     -112.271    -897.715      -7.919
  H     -109.564    -898.655      -8.065
  H     -108.809    -896.705      -6.877
  H     -111.283    -897.195      -5.090
  H     -110.504    -896.245     -13.742
  H     -111.059    -894.715      -4.658
  H     -109.492    -894.915     -13.279
  H     -109.747    -895.675      -3.957
  P     -107.502    -897.445      -4.589
  C     -107.467    -899.215      -2.721
  O     -106.773    -898.645      -3.818
  O     -107.795    -896.255      -3.752
  O     -106.488    -897.145      -5.804
  H     -106.220    -897.925      -6.313
  H     -106.878    -900.000      -2.295
  H     -108.401    -899.613      -3.058
  H     -107.646    -898.462      -1.982

 6  7  8  9  10  11  12  13  14  15  16  26  30  31  32  33  35 0
 6-311+G(2d,p)
 ****
 37  38 0
 6-311+G(2d,p)
 ****
 1  2  3  4  5  17  18  19  20  21  22  23  24  25 0
 3-21G
 ****
 27  28  29  34  36  39  40  41  42  43  44  45  46 0
 3-21G
 ****


