%nproc=1
%NoSave
%Mem=1900MB
#P OB98/GEN NMR

erre ene a

0 1
  C      448.646     895.507     -52.668
  O      447.383     896.138     -52.732
  H      448.514     894.437     -52.858
  H      449.077     895.639     -51.668
  H      449.321     895.922     -53.423
  P      447.371     897.740     -52.662
  C      445.040     897.803     -51.455
  O      445.823     898.157     -52.578
  C      443.549     898.001     -51.743
  O      443.317     899.407     -52.023
  C      443.041     897.204     -52.943
  O      441.700     896.784     -52.676
  C      443.037     898.222     -54.074
  O      442.131     897.862     -55.118
  C      442.670     899.508     -53.310
  N      443.075     900.712     -54.025
  C      442.107     901.318     -54.839
  O      440.987     900.825     -54.937
  N      442.454     902.438     -55.561
  C      443.672     902.884     -55.516
  N      443.959     903.977     -56.272
  C      444.739     902.245     -54.709
  C      444.368     901.188     -54.004
  O      447.786     898.142     -54.155
  O      448.247     898.318     -51.597
  H      442.364     896.968     -55.441
  H      447.326     897.621     -54.834
  H      445.746     902.645     -54.719
  H      445.084     900.658     -53.364
  H      441.582     899.558     -53.140
  H      444.034     898.311     -54.509
  H      443.655     896.325     -53.164
  H      442.984     897.760     -50.840
  H      443.198     904.366     -56.823
  H      445.325     898.402     -50.578
  H      444.881     904.376     -56.365
  H      445.240     896.747     -51.219
  P      441.420     895.271     -52.218
  C      439.041     895.689     -53.176
  O      439.828     895.021     -52.182
  O      442.159     894.817     -51.006
  O      441.870     894.428     -53.508
  H      442.335     893.630     -53.193
  H      438.009     895.440     -53.041
  H      439.358     895.379     -54.150
  H      439.168     896.747     -53.079

 6  7  8  9  10  11  12  13  14  15  16  26  30  31  32  33  35 0
 6-311+G(2d,p)
 ****
 37  38 0
 6-311+G(2d,p)
 ****
 1  2  3  4  5  17  18  19  20  21  22  23  24  25 0
 3-21G
 ****
 27  28  29  34  36  39  40  41  42  43  44  45  46 0
 3-21G
 ****


