%nproc=1
%NoSave
%Mem=1900MB
#P OB98/GEN NMR

erre ene a

0 1
  C       99.432    -381.699    -186.682
  O      100.240    -380.581    -186.996
  P       99.882    -379.196    -186.255
  C       97.896    -377.504    -186.417
  O       98.435    -378.754    -186.804
  C       97.100    -376.909    -187.576
  O       95.954    -377.731    -187.876
  C       96.559    -375.508    -187.316
  O       97.566    -374.536    -187.549
  C       95.400    -375.440    -188.302
  O       95.874    -375.125    -189.633
  C       94.843    -376.869    -188.247
  N       89.813    -377.136    -187.790
  C       90.589    -376.778    -188.879
  N       89.925    -376.503    -190.023
  N       91.894    -376.713    -188.852
  C       92.417    -377.002    -187.635
  C       91.752    -377.347    -186.481
  C       90.316    -377.471    -186.539
  O       89.586    -377.874    -185.635
  N       92.626    -377.550    -185.440
  C       93.816    -377.358    -185.975
  N       93.746    -377.045    -187.311
  O      100.885    -378.152    -186.933
  O       99.994    -379.225    -184.761
  H       96.453    -375.840    -189.942
  H      101.667    -378.006    -186.362
  H       88.811    -377.184    -187.874
  H       94.747    -377.448    -185.448
  H       94.479    -377.212    -189.228
  H       94.673    -374.659    -188.039
  H       88.923    -376.509    -190.120
  H       96.171    -375.428    -186.293
  H       90.480    -376.240    -190.836
  H       97.743    -376.912    -188.470
  H       98.714    -376.820    -186.157
  H       97.257    -377.641    -185.537
  P       97.568    -373.240    -186.602
  C       95.759    -371.447    -186.091
  O       96.326    -372.328    -187.046
  O       98.854    -372.418    -187.113
  O       97.664    -373.532    -185.144
  H       99.284    -371.980    -186.352
  H       95.347    -370.577    -186.617
  H       96.502    -371.104    -185.363
  H       94.959    -371.966    -185.561
  H       99.770    -382.550    -187.235
  H       98.415    -381.487    -186.939
  H       99.500    -381.905    -185.634

 3  4  5  6  7  8  9  10  11  12  23  26  30  31 0
 6-311+G(2d,p)
 ****
 33  35  36  37  38 0
 6-311+G(2d,p)
 ****
 1  2  13  14  15  16  17  18  19  20  21  22  24  25 0
 3-21G
 ****
 27  28  29  32  34  39  40  41  42  43  44  45  46  47  48  49 0
 3-21G
 ****


