%nproc=1
%NoSave
%Mem=1900MB
#P OB98/GEN NMR

erre ene a

0 1
  C       82.055     554.618     183.103
  O       80.856     553.872     183.026
  H       82.839     553.986     183.522
  H       81.912     555.482     183.760
  H       82.357     554.956     182.106
  P       79.615     554.559     182.286
  C       77.810     555.443     183.977
  O       79.027     555.675     183.277
  C       77.122     556.772     184.287
  O       77.940     557.587     185.144
  C       76.890     557.643     183.069
  O       75.870     557.143     182.219
  C       76.537     558.966     183.736
  O       75.180     558.968     184.198
  C       77.519     558.968     184.933
  N       78.659     559.853     184.721
  C       78.360     561.217     184.624
  O       77.195     561.609     184.717
  N       79.380     562.101     184.376
  C       80.598     561.663     184.274
  N       81.573     562.585     184.028
  C       80.963     560.235     184.400
  C       79.952     559.394     184.621
  O       78.500     553.416     182.338
  O       79.900     555.081     180.914
  H       75.090     559.739     184.789
  H       78.331     553.073     183.238
  H       81.993     559.914     184.317
  H       80.133     558.335     184.725
  H       77.007     559.284     185.854
  H       76.644     559.815     183.057
  H       77.825     557.784     182.516
  H       76.182     556.554     184.810
  H       81.282     563.549     183.923
  H       77.986     554.870     184.892
  H       82.545     562.357     183.896
  H       77.167     554.836     183.330
  P       75.930     557.392     180.641
  C       74.468     559.497     180.897
  O       75.707     558.971     180.427
  O       75.043     556.521     179.823
  O       77.500     557.236     180.298
  H       78.077     557.857     180.770
  H       74.430     560.549     180.703
  H       74.384     559.325     181.950
  H       73.660     559.012     180.391

 6  7  8  9  10  11  12  13  14  15  16  26  30  31  32  33  35 0
 6-311+G(2d,p)
 ****
 37  38 0
 6-311+G(2d,p)
 ****
 1  2  3  4  5  17  18  19  20  21  22  23  24  25 0
 3-21G
 ****
 27  28  29  34  36  39  40  41  42  43  44  45  46 0
 3-21G
 ****


