%nproc=1
%NoSave
%Mem=1900MB
#P OB98/GEN NMR

erre ene a

0 1
  C     -253.661      36.718     104.722
  O     -253.764      38.088     104.335
  P     -254.934      38.989     104.962
  C     -256.819      39.172     103.226
  O     -256.342      38.487     104.376
  C     -258.174      38.633     102.744
  O     -259.196      38.816     103.760
  C     -258.691      39.288     101.455
  O     -259.371      38.271     100.711
  C     -259.674      40.312     101.987
  O     -260.584      40.758     100.994
  C     -260.288      39.529     103.148
  N     -260.972      40.387     104.103
  C     -262.120      41.046     103.662
  O     -262.457      40.971     102.480
  N     -262.835      41.796     104.564
  C     -262.357      41.990     105.755
  N     -263.103      42.721     106.625
  C     -261.056      41.456     106.197
  C     -260.437      40.651     105.338
  O     -254.713      40.463     104.895
  O     -254.991      38.487     106.485
  H     -261.098      39.991     100.664
  H     -255.217      39.246     107.059
  H     -260.661      41.712     107.169
  H     -259.481      40.205     105.572
  H     -261.001      38.779     102.780
  H     -259.128      41.187     102.362
  H     -257.898      39.715     100.836
  H     -258.066      37.552     102.584
  H     -263.982      43.102     106.300
  H     -256.087      39.071     102.420
  H     -262.825      42.873     107.586
  H     -256.881      40.243     103.448
  P     -258.719      37.742      99.345
  C     -259.652      39.813      98.084
  O     -258.536      38.996      98.366
  O     -259.958      36.972      98.669
  O     -257.557      36.814      99.485
  H     -259.612      36.295      98.057
  H     -259.297      40.752      97.649
  H     -260.217      40.045      98.992
  H     -260.304      39.314      97.362
  H     -252.834      36.266     104.216
  H     -254.563      36.205     104.461
  H     -253.509      36.657     105.779

 3  4  5  6  7  8  9  10  11  12  13  23  27  28  29  30  32 0
 6-311+G(2d,p)
 ****
 34  35 0
 6-311+G(2d,p)
 ****
 1  2  14  15  16  17  18  19  20  21  22  24  25  26 0
 3-21G
 ****
 31  33  36  37  38  39  40  41  42  43  44  45  46 0
 3-21G
 ****


