%nproc=1
%NoSave
%Mem=1900MB
#P OB98/GEN NMR

erre ene a

0 1
  C     -230.920     239.150     -73.230
  O     -232.278     238.967     -73.558
  P     -233.489     239.494     -72.660
  C     -233.945     237.210     -71.465
  O     -233.581     238.581     -71.343
  C     -234.543     236.677     -70.153
  O     -233.479     236.577     -69.167
  C     -235.592     237.651     -69.580
  O     -236.748     237.014     -69.052
  C     -234.768     238.510     -68.621
  O     -235.557     239.176     -67.642
  C     -233.755     237.497     -68.099
  N     -231.381     240.123     -64.438
  C     -232.632     239.530     -64.415
  N     -233.404     239.824     -63.351
  N     -233.079     238.750     -65.365
  C     -232.236     238.634     -66.416
  C     -230.973     239.173     -66.555
  C     -230.476     240.007     -65.488
  O     -229.428     240.653     -65.516
  N     -230.438     238.904     -67.791
  C     -231.385     238.235     -68.413
  N     -232.500     238.068     -67.633
  O     -234.758     239.827     -73.369
  O     -232.884     240.872     -72.066
  H     -234.993     239.843     -67.215
  H     -233.630     241.497     -71.979
  H     -231.122     240.783     -63.708
  H     -231.322     237.862     -69.431
  H     -234.156     236.929     -67.253
  H     -234.285     239.284     -69.213
  H     -233.149     240.536     -62.677
  H     -235.999     238.289     -70.367
  H     -234.393     239.607     -63.427
  H     -234.947     235.673     -70.324
  H     -233.026     236.659     -71.704
  H     -234.644     237.070     -72.296
  P     -238.291     237.357     -69.300
  C     -238.551     239.005     -67.343
  O     -238.580     238.828     -68.754
  O     -239.090     236.432     -68.269
  O     -238.766     237.109     -70.692
  H     -239.904     236.092     -68.705
  H     -239.016     239.955     -67.093
  H     -237.507     239.020     -67.008
  H     -239.086     238.197     -66.842
  H     -230.307     238.708     -73.988
  H     -230.715     238.685     -72.289
  H     -230.707     240.196     -73.165

 3  4  5  6  7  8  9  10  11  12  23  26  30  31 0
 6-311+G(2d,p)
 ****
 33  35  36  37  38 0
 6-311+G(2d,p)
 ****
 1  2  13  14  15  16  17  18  19  20  21  22  24  25 0
 3-21G
 ****
 27  28  29  32  34  39  40  41  42  43  44  45  46  47  48  49 0
 3-21G
 ****


