%nproc=1
%NoSave
%Mem=1900MB
#P OB98/GEN NMR

erre ene a

0 1
  C      -78.143    -110.970     180.390
  O      -77.385    -111.390     181.512
  P      -78.092    -112.083     182.777
  C      -77.363    -114.487     182.173
  O      -78.442    -113.569     182.292
  C      -77.655    -115.741     182.990
  O      -77.783    -115.393     184.382
  C      -78.953    -116.448     182.619
  O      -78.807    -117.187     181.415
  C      -79.197    -117.279     183.874
  O      -78.381    -118.461     183.857
  C      -78.711    -116.325     184.985
  N      -79.805    -115.624     185.648
  C      -79.879    -115.756     187.038
  O      -79.051    -116.422     187.656
  N      -80.876    -115.094     187.709
  C      -81.739    -114.383     187.051
  N      -82.664    -113.695     187.773
  C      -81.731    -114.264     185.581
  C      -80.745    -114.898     184.952
  O      -79.244    -111.325     183.344
  O      -76.906    -112.327     183.816
  H      -77.454    -118.162     183.786
  H      -76.746    -111.562     184.421
  H      -82.480    -113.670     185.076
  H      -80.657    -114.843     183.875
  H      -78.140    -116.880     185.738
  H      -80.239    -117.593     183.993
  H      -79.764    -115.721     182.497
  H      -76.803    -116.427     182.885
  H      -82.525    -113.666     188.777
  H      -76.455    -114.010     182.559
  H      -83.171    -112.915     187.375
  H      -77.211    -114.730     181.117
  P      -80.144    -117.593     180.629
  C      -80.682    -115.231     179.705
  O      -81.052    -116.268     180.594
  O      -80.892    -118.564     181.655
  O      -79.906    -118.241     179.306
  H      -80.761    -119.496     181.398
  H      -81.514    -114.526     179.631
  H      -80.468    -115.629     178.710
  H      -79.808    -114.702     180.093
  H      -77.491    -110.536     179.661
  H      -78.865    -110.244     180.699
  H      -78.645    -111.813     179.963

 3  4  5  6  7  8  9  10  11  12  13  23  27  28  29  30  32 0
 6-311+G(2d,p)
 ****
 34  35 0
 6-311+G(2d,p)
 ****
 1  2  14  15  16  17  18  19  20  21  22  24  25  26 0
 3-21G
 ****
 31  33  36  37  38  39  40  41  42  43  44  45  46 0
 3-21G
 ****


