%nproc=1
%NoSave
%Mem=1900MB
#P OB98/GEN NMR

erre ene a

0 1
  C       63.905      44.472     -45.286
  O       63.757      43.727     -46.481
  P       62.298      43.461     -47.084
  C       61.815      41.561     -45.373
  O       61.422      42.802     -45.915
  C       60.847      40.444     -45.785
  O       61.508      39.176     -45.555
  C       59.552      40.391     -44.983
  O       58.596      39.619     -45.713
  C       59.982      39.631     -43.749
  O       58.877      39.058     -43.055
  C       61.005      38.616     -44.319
  N       62.113      38.377     -43.377
  C       62.000      37.270     -42.541
  O       61.071      36.467     -42.615
  N       62.946      37.164     -41.559
  C       63.937      38.069     -41.318
  O       64.572      38.125     -40.272
  C       64.147      39.075     -42.371
  C       63.222      39.199     -43.326
  O       62.550      42.252     -48.100
  O       61.674      44.633     -47.759
  H       58.263      39.798     -42.838
  H       62.666      42.593     -49.007
  H       62.781      36.444     -40.866
  H       65.013      39.718     -42.296
  H       63.324      39.968     -44.087
  H       60.532      37.651     -44.537
  H       60.483      40.321     -43.059
  H       59.136      41.372     -44.734
  H       60.635      40.525     -46.858
  H       61.867      41.643     -44.284
  H       62.824      41.300     -45.712
  P       57.059      40.070     -45.647
  C       56.485      38.589     -43.630
  O       56.608      39.910     -44.117
  O       56.151      39.448     -46.653
  O       57.142      41.662     -45.825
  H       56.273      42.008     -46.096
  H       56.692      38.588     -42.557
  H       57.185      37.912     -44.127
  H       55.463      38.239     -43.795
  H       64.943      44.546     -45.038
  H       63.383      43.980     -44.492
  H       63.500      45.453     -45.425

 3  4  5  6  7  8  9  10  11  12  13  23  28  29  30  31  32 0
 6-311+G(2d,p)
 ****
 33  34 0
 6-311+G(2d,p)
 ****
 1  2  14  15  16  17  18  19  20  21  22  24  25  26  27 0
 3-21G
 ****
 35  36  37  38  39  40  41  42  43  44  45 0
 3-21G
 ****


