%nproc=1
%NoSave
%Mem=1900MB
#P OB98/GEN NMR

erre ene a

0 1
  C      224.906    -304.344     270.011
  O      224.619    -303.054     270.516
  H      225.968    -304.560     270.146
  H      224.325    -305.079     270.573
  H      224.641    -304.415     268.952
  P      225.123    -301.798     269.654
  C      224.779    -299.242     269.954
  O      224.933    -300.503     270.587
  C      223.710    -298.411     270.662
  O      222.407    -298.787     270.127
  C      223.665    -298.607     272.186
  O      223.391    -297.342     272.796
  C      222.464    -299.520     272.384
  O      221.884    -299.388     273.675
  C      221.552    -299.064     271.250
  N      217.820    -301.905     273.215
  C      218.432    -300.789     273.661
  N      219.386    -300.060     273.046
  C      219.648    -300.551     271.820
  C      219.095    -301.676     271.227
  C      218.152    -302.384     271.992
  N      217.569    -303.560     271.574
  N      219.663    -301.887     269.985
  C      220.552    -300.924     269.842
  N      220.580    -300.095     270.929
  O      223.959    -301.646     268.559
  O      226.467    -301.947     269.026
  H      221.176    -300.056     273.775
  H      224.159    -302.209     267.790
  H      218.128    -300.440     274.643
  H      221.218    -300.802     269.000
  H      220.996    -298.149     271.495
  H      222.772    -300.564     272.248
  H      224.584    -299.029     272.604
  H      223.865    -297.356     270.412
  H      224.475    -299.401     268.915
  H      216.984    -304.052     272.232
  H      217.886    -303.983     270.716
  H      225.737    -298.711     269.961
  P      224.574    -296.653     273.634
  C      225.021    -294.265     274.569
  O      224.059    -295.238     274.175
  O      225.637    -296.255     272.503
  O      225.179    -297.547     274.671
  H      226.543    -296.317     272.859
  H      224.518    -293.382     274.904
  H      225.647    -294.025     273.735
  H      225.620    -294.657     275.364

 6  7  8  9  10  11  12  13  14  15  25  28  32  33  34  35 0
 6-311+G(2d,p)
 ****
 36  39  40 0
 6-311+G(2d,p)
 ****
 1  2  3  4  5  16  17  18  19  20  21  22  23  24 0
 3-21G
 ****
 26  27  29  30  31  37  38  41  42  43  44  45  46  47 0
 3-21G
 ****
 48 0
 3-21G
 ****


