%nproc=1
%NoSave
%Mem=1900MB
#P OB98/GEN NMR

erre ene a

0 1
  C      -46.475     177.958    -215.851
  O      -46.120     177.329    -217.070
  H      -47.187     178.759    -216.070
  H      -45.591     178.392    -215.376
  H      -46.950     177.237    -215.184
  P      -45.048     176.140    -216.977
  C      -46.446     174.208    -217.985
  O      -45.937     174.814    -216.803
  C      -47.861     173.680    -217.745
  O      -48.777     174.777    -217.582
  C      -48.412     172.827    -218.882
  O      -47.959     171.486    -218.761
  C      -49.910     172.934    -218.622
  O      -50.292     172.007    -217.582
  C      -50.069     174.379    -218.120
  N      -54.009     176.994    -220.119
  C      -53.964     175.974    -219.237
  N      -52.890     175.288    -218.799
  C      -51.759     175.761    -219.347
  C      -51.649     176.802    -220.262
  C      -52.840     177.435    -220.649
  N      -52.884     178.478    -221.555
  N      -50.329     177.006    -220.613
  C      -49.652     176.152    -219.873
  N      -50.474     175.350    -219.119
  O      -43.951     176.333    -215.979
  O      -44.570     176.037    -218.503
  H      -50.000     171.121    -217.876
  H      -45.330     176.137    -219.106
  H      -54.931     175.657    -218.835
  H      -48.572     176.084    -219.830
  H      -50.800     174.446    -217.301
  H      -50.505     172.684    -219.500
  H      -48.184     173.253    -219.865
  H      -47.858     173.118    -216.800
  H      -45.791     173.381    -218.297
  H      -53.787     178.739    -221.914
  H      -52.031     178.712    -222.038
  H      -46.447     174.965    -218.772
  P      -47.093     170.796    -219.922
  C      -45.538     169.861    -218.095
  O      -45.625     170.618    -219.304
  O      -47.163     171.489    -221.242
  O      -47.640     169.292    -219.979
  H      -47.372     168.869    -220.820
  H      -44.517     169.810    -217.779
  H      -45.909     168.872    -218.266
  H      -46.123     170.335    -217.335

 6  7  8  9  10  11  12  13  14  15  25  28  32  33  34  35 0
 6-311+G(2d,p)
 ****
 36  39  40 0
 6-311+G(2d,p)
 ****
 1  2  3  4  5  16  17  18  19  20  21  22  23  24 0
 3-21G
 ****
 26  27  29  30  31  37  38  41  42  43  44  45  46  47 0
 3-21G
 ****
 48 0
 3-21G
 ****


