%nproc=1
%NoSave
%Mem=1900MB
#P OB98/GEN NMR

erre ene a

0 1
  C     -123.024     550.369     264.056
  O     -121.678     550.501     263.655
  H     -123.185     550.991     264.939
  H     -123.232     549.326     264.314
  H     -123.704     550.701     263.267
  P     -121.243     549.963     262.210
  C     -119.777     548.091     263.223
  O     -119.820     549.240     262.383
  C     -118.395     547.949     263.885
  O     -118.345     548.812     265.056
  C     -118.144     546.516     264.360
  O     -116.751     546.194     264.375
  C     -118.658     546.548     265.794
  O     -118.090     545.523     266.613
  C     -118.286     547.964     266.220
  N     -120.290     547.309     270.868
  C     -119.593     546.409     270.075
  N     -119.418     545.172     270.600
  N     -119.144     546.687     268.884
  C     -119.466     547.938     268.465
  C     -120.165     548.909     269.138
  C     -120.628     548.599     270.477
  O     -121.265     549.353     271.211
  N     -120.295     550.048     268.385
  C     -119.690     549.762     267.249
  N     -119.139     548.502     267.257
  O     -120.856     551.297     261.414
  O     -122.277     549.168     261.478
  H     -117.156     545.437     266.357
  H     -120.910     551.146     260.455
  H     -120.590     547.049     271.786
  H     -119.595     550.434     266.407
  H     -117.254     547.994     266.594
  H     -119.734     546.382     265.771
  H     -119.914     544.859     271.424
  H     -118.676     545.776     263.768
  H     -119.197     544.422     269.934
  H     -117.615     548.307     263.197
  H     -119.992     547.222     262.598
  H     -120.561     548.151     263.982
  P     -116.231     545.051     263.380
  C     -114.484     543.713     264.861
  O     -114.749     544.607     263.797
  O     -116.018     545.822     261.995
  O     -117.152     543.883     263.231
  H     -116.632     545.478     261.320
  H     -113.428     543.568     264.950
  H     -114.958     542.774     264.664
  H     -114.866     544.121     265.773

 6  7  8  9  10  11  12  13  14  15  26  29  33  34 0
 6-311+G(2d,p)
 ****
 36  38  39  40  41 0
 6-311+G(2d,p)
 ****
 1  2  3  4  5  16  17  18  19  20  21  22  23  24  25 0
 3-21G
 ****
 27  28  30  31  32  35  37  42  43  44  45  46  47 0
 3-21G
 ****
 48  49 0
 3-21G
 ****


