%nproc=1
%NoSave
%Mem=1900MB
#P OB98/GEN NMR

erre ene a

0 1
  C     -270.125      72.642    -448.596
  O     -271.092      71.622    -448.780
  P     -270.884      70.161    -448.142
  C     -271.834      70.942    -445.866
  O     -270.715      70.423    -446.567
  C     -271.796      70.477    -444.412
  O     -272.230      69.107    -444.331
  C     -270.412      70.515    -443.772
  O     -270.043      71.839    -443.427
  C     -270.614      69.561    -442.600
  O     -271.285      70.230    -441.520
  C     -271.542      68.493    -443.211
  N     -270.830      67.289    -443.628
  C     -270.852      66.214    -442.738
  O     -271.453      66.287    -441.666
  N     -270.217      65.051    -443.098
  C     -269.593      64.977    -444.233
  N     -269.039      63.778    -444.569
  C     -269.498      66.107    -445.178
  C     -270.137      67.220    -444.817
  O     -269.797      69.353    -448.760
  O     -272.326      69.484    -448.222
  H     -270.695      70.951    -441.225
  H     -272.490      69.003    -449.071
  H     -268.954      66.001    -446.106
  H     -270.131      68.088    -445.460
  H     -272.321      68.212    -442.492
  H     -269.676      69.147    -442.208
  H     -269.663      70.101    -444.458
  H     -272.501      71.097    -443.832
  H     -269.281      62.992    -443.976
  H     -272.746      70.566    -446.338
  H     -268.796      63.557    -445.525
  H     -271.826      72.035    -445.928
  P     -268.508      72.111    -443.056
  C     -267.750      72.195    -445.537
  O     -267.650      71.534    -444.289
  O     -268.232      71.080    -441.863
  O     -268.200      73.519    -442.670
  H     -268.256      71.542    -441.005
  H     -266.947      71.837    -446.184
  H     -267.646      73.278    -445.411
  H     -268.709      71.964    -446.005
  H     -270.446      73.532    -449.095
  H     -269.188      72.323    -449.003
  H     -270.010      72.840    -447.551

 3  4  5  6  7  8  9  10  11  12  13  23  27  28  29  30  32 0
 6-311+G(2d,p)
 ****
 34  35 0
 6-311+G(2d,p)
 ****
 1  2  14  15  16  17  18  19  20  21  22  24  25  26 0
 3-21G
 ****
 31  33  36  37  38  39  40  41  42  43  44  45  46 0
 3-21G
 ****


