%nproc=1
%NoSave
%Mem=1900MB
#P OB98/GEN NMR

erre ene a

0 1
  C      141.042     322.386     239.840
  O      141.011     321.093     239.258
  P      141.784     319.915     240.033
  C      139.957     319.718     241.870
  O      141.318     320.002     241.567
  C      139.825     318.991     243.211
  O      138.422     318.839     243.528
  C      140.469     317.603     243.233
  O      141.045     317.410     244.524
  C      139.289     316.664     243.072
  O      139.566     315.370     243.606
  C      138.185     317.443     243.802
  N      136.848     317.035     243.381
  C      136.071     316.351     244.322
  O      136.549     316.054     245.416
  N      134.795     315.980     243.981
  C      134.372     316.175     242.771
  N      133.098     315.792     242.482
  C      135.205     316.780     241.713
  C      136.412     317.201     242.088
  O      143.292     320.440     240.075
  O      141.667     318.570     239.393
  H      138.795     314.793     243.421
  H      143.921     319.695     240.041
  H      134.816     316.886     240.710
  H      137.080     317.680     241.387
  H      138.265     317.302     244.889
  H      139.042     316.554     242.009
  H      141.238     317.477     242.464
  H      140.267     319.624     243.988
  H      132.554     315.364     243.218
  H      139.546     319.072     241.090
  H      132.683     315.902     241.566
  H      139.383     320.651     241.878
  P      142.410     316.571     244.611
  C      143.831     318.687     244.912
  O      143.546     317.574     244.088
  O      142.256     315.580     243.360
  O      142.697     315.816     245.865
  H      143.008     314.959     243.339
  H      144.706     319.204     244.512
  H      144.052     318.364     245.933
  H      142.984     319.379     244.909
  H      140.492     323.067     239.225
  H      142.056     322.717     239.920
  H      140.601     322.349     240.814

 3  4  5  6  7  8  9  10  11  12  13  21  23  27  28  29  30  32 0
 6-311+G(2d,p)
 ****
 34  35 0
 6-311+G(2d,p)
 ****
 1  2  14  15  16  17  18  19  20  22  24  25  26 0
 3-21G
 ****
 31  33  36  37  38  39  40  41  42  43  44  45  46 0
 3-21G
 ****


