%nproc=1
%NoSave
%Mem=1900MB
#P OB98/GEN NMR

erre ene a

0 1
  C     -547.024     141.630    1140.749
  O     -546.936     140.510    1141.590
  H     -546.011     141.939    1140.469
  H     -547.505     142.459    1141.283
  H     -547.594     141.405    1139.843
  P     -548.267     139.674    1141.925
  C     -546.726     137.590    1141.933
  O     -547.786     138.293    1142.590
  C     -546.484     136.225    1142.585
  O     -546.037     136.420    1143.955
  C     -547.750     135.348    1142.645
  O     -547.318     133.973    1142.552
  C     -548.274     135.635    1144.044
  O     -549.178     134.658    1144.471
  C     -546.953     135.730    1144.821
  N     -547.106     136.415    1146.111
  C     -547.747     135.701    1147.117
  O     -548.215     134.556    1146.947
  N     -547.909     136.349    1148.311
  C     -547.537     137.632    1148.570
  O     -547.732     138.182    1149.651
  C     -546.904     138.359    1147.465
  C     -546.720     137.732    1146.301
  O     -549.237     139.522    1140.800
  O     -548.927     140.444    1143.169
  H     -548.729     133.779    1144.548
  H     -549.892     140.354    1143.148
  H     -548.369     135.843    1149.058
  H     -546.609     139.387    1147.628
  H     -546.253     138.242    1145.457
  H     -546.543     134.735    1145.019
  H     -548.797     136.604    1144.066
  H     -548.480     135.562    1141.856
  H     -545.668     135.722    1142.038
  H     -545.822     138.211    1142.026
  H     -546.966     137.475    1140.878
  P     -547.155     133.226    1141.141
  C     -545.595     131.228    1141.655
  O     -546.944     131.641    1141.424
  O     -546.148     133.835    1140.233
  O     -548.611     133.278    1140.487
  H     -548.530     133.269    1139.504
  H     -545.570     130.173    1141.829
  H     -545.207     131.740    1142.510
  H     -544.999     131.462    1140.798

 6  7  8  9  10  11  12  13  14  15  16  26  31  32  33  34  35 0
 6-311+G(2d,p)
 ****
 36  37 0
 6-311+G(2d,p)
 ****
 1  2  3  4  5  17  18  19  20  21  22  23  24  25 0
 3-21G
 ****
 27  28  29  30  38  39  40  41  42  43  44  45 0
 3-21G
 ****


