%nproc=1
%NoSave
%Mem=1900MB
#P OB98/GEN NMR

erre ene a

0 1
  C       27.264    -110.536     -25.933
  O       26.633    -111.379     -24.990
  P       27.192    -112.848     -24.671
  C       25.475    -113.875     -26.289
  O       26.851    -113.734     -25.966
  C       25.178    -115.253     -26.880
  O       25.636    -115.300     -28.261
  C       25.836    -116.425     -26.135
  O       24.926    -117.527     -26.235
  C       27.080    -116.682     -26.964
  O       27.627    -117.978     -26.747
  C       26.543    -116.417     -28.379
  N       27.618    -116.160     -29.334
  C       28.077    -117.253     -30.074
  O       27.631    -118.383     -29.855
  N       29.064    -117.053     -31.006
  C       29.617    -115.886     -31.111
  N       30.587    -115.746     -32.055
  C       29.252    -114.738     -30.260
  C       28.246    -114.940     -29.411
  O       26.742    -113.433     -23.375
  O       28.781    -112.679     -24.777
  H       28.544    -117.989     -27.094
  H       29.137    -112.242     -23.966
  H       29.780    -113.799     -30.343
  H       27.904    -114.154     -28.746
  H       25.960    -117.276     -28.738
  H       27.853    -115.945     -26.709
  H       26.063    -116.206     -25.090
  H       24.089    -115.386     -26.899
  H       30.797    -116.555     -32.626
  H       25.219    -113.113     -27.033
  H       31.023    -114.860     -32.273
  H       24.860    -113.692     -25.399
  P       24.729    -118.559     -25.028
  C       25.748    -120.489     -26.371
  O       25.844    -119.698     -25.199
  O       23.336    -119.064     -24.845
  O       25.229    -117.755     -23.734
  H       24.912    -118.207     -22.928
  H       26.691    -121.023     -26.522
  H       25.544    -119.869     -27.249
  H       24.944    -121.220     -26.251
  H       26.734    -109.608     -25.993
  H       27.263    -111.010     -26.892
  H       28.273    -110.351     -25.628

 3  4  5  6  7  8  9  10  11  12  13  23  27  28  29  30  32 0
 6-311+G(2d,p)
 ****
 34  35 0
 6-311+G(2d,p)
 ****
 1  2  14  15  16  17  18  19  20  21  22  24  25  26 0
 3-21G
 ****
 31  33  36  37  38  39  40  41  42  43  44  45  46 0
 3-21G
 ****


