%nproc=1
%NoSave
%Mem=1900MB
#P OB98/GEN NMR

erre ene a

0 1
  C       32.915     -26.123    -184.601
  O       33.032     -25.828    -185.980
  P       33.737     -24.449    -186.391
  C       32.740     -24.338    -188.798
  O       32.815     -23.757    -187.504
  C       31.723     -23.574    -189.648
  O       30.408     -23.658    -189.056
  C       32.024     -22.087    -189.767
  O       33.044     -21.839    -190.720
  C       30.667     -21.530    -190.174
  O       30.459     -21.658    -191.589
  C       29.701     -22.446    -189.395
  N       29.141     -21.796    -188.215
  C       28.248     -20.757    -188.458
  O       27.956     -20.378    -189.594
  N       27.734     -20.137    -187.354
  C       28.057     -20.411    -186.057
  O       27.604     -19.783    -185.107
  C       29.029     -21.501    -185.860
  C       29.521     -22.128    -186.930
  O       35.036     -24.911    -187.205
  O       34.087     -23.565    -185.242
  H       29.567     -21.301    -191.773
  H       35.774     -24.296    -187.028
  H       27.067     -19.398    -187.507
  H       29.309     -21.746    -184.843
  H       30.247     -22.923    -186.807
  H       28.871     -22.754    -190.043
  H       30.567     -20.467    -189.932
  H       32.298     -21.680    -188.786
  H       31.681     -24.040    -190.641
  H       32.435     -25.384    -188.708
  H       33.730     -24.306    -189.262
  P       33.939     -20.523    -190.502
  C       34.057     -20.534    -193.113
  O       33.942     -19.783    -191.923
  O       35.396     -21.172    -190.363
  O       33.502     -19.709    -189.330
  H       35.492     -21.975    -190.901
  H       33.539     -21.493    -193.031
  H       35.112     -20.708    -193.332
  H       33.614     -19.963    -193.933
  H       32.428     -27.068    -184.478
  H       32.339     -25.360    -184.121
  H       33.890     -26.165    -184.161

 3  4  5  6  7  8  9  10  11  12  13  23  28  29  30  31  32 0
 6-311+G(2d,p)
 ****
 33  34 0
 6-311+G(2d,p)
 ****
 1  2  14  15  16  17  18  19  20  21  22  24  25  26 0
 3-21G
 ****
 27  35  36  37  38  39  40  41  42  43  44  45 0
 3-21G
 ****


