%nproc=1
%NoSave
%Mem=1900MB
#P OB98/GEN NMR

erre ene a

0 1
  C      220.721     158.193     247.113
  O      219.823     157.798     248.130
  H      221.011     159.231     247.286
  H      220.234     158.124     246.136
  H      221.621     157.572     247.124
  P      219.380     156.261     248.220
  C      220.424     154.080     249.124
  O      220.558     155.488     248.983
  C      221.113     153.598     250.406
  O      222.515     154.005     250.366
  C      220.512     154.179     251.703
  O      220.710     153.195     252.732
  C      221.408     155.388     251.914
  O      221.254     155.961     253.191
  C      222.767     154.757     251.570
  N      223.860     155.700     251.372
  C      224.092     156.646     252.365
  O      223.436     156.738     253.404
  N      225.124     157.517     252.130
  C      225.938     157.523     251.036
  O      226.868     158.309     250.896
  C      225.641     156.504     250.018
  C      224.638     155.650     250.225
  O      218.939     155.638     246.937
  O      218.202     156.273     249.304
  H      217.338     156.220     248.850
  H      220.352     156.337     253.263
  H      225.310     158.205     252.848
  H      226.260     156.487     249.129
  H      224.398     154.881     249.498
  H      223.050     154.039     252.348
  H      221.150     156.175     251.200
  H      219.449     154.410     251.620
  H      221.100     152.500     250.424
  H      220.892     153.603     248.256
  H      219.362     153.820     249.146
  P      219.508     152.434     253.467
  C      218.152     150.648     252.159
  O      219.377     150.965     252.817
  O      218.222     153.197     253.486
  O      220.026     152.149     254.952
  H      219.269     152.076     255.561
  H      218.200     149.650     251.777
  H      217.994     151.332     251.351
  H      217.343     150.725     252.855

 6  7  8  9  10  11  12  13  14  15  16  27  31  32  33  34  35 0
 6-311+G(2d,p)
 ****
 36  37 0
 6-311+G(2d,p)
 ****
 1  2  3  4  5  17  18  19  20  21  22  23  24  25 0
 3-21G
 ****
 26  28  29  30  38  39  40  41  42  43  44  45 0
 3-21G
 ****


