%nproc=1
%NoSave
%Mem=1900MB
#P OB98/GEN NMR

erre ene a

0 1
  C     -480.564    -670.788     -79.256
  O     -480.914    -670.439     -77.916
  P     -481.071    -671.649     -76.873
  C     -481.109    -669.920     -74.943
  O     -481.720    -671.066     -75.521
  C     -481.462    -668.645     -75.714
  O     -482.902    -668.536     -75.902
  C     -481.009    -667.359     -75.026
  O     -480.656    -666.412     -76.045
  C     -482.261    -666.881     -74.327
  O     -482.178    -665.490     -74.004
  C     -483.305    -667.263     -75.367
  N     -487.520    -664.598     -74.260
  C     -486.350    -664.242     -74.826
  N     -485.266    -665.007     -75.066
  C     -485.492    -666.280     -74.696
  C     -486.637    -666.790     -74.091
  C     -487.685    -665.885     -73.877
  N     -488.870    -666.242     -73.269
  N     -486.481    -668.134     -73.814
  C     -485.260    -668.426     -74.234
  N     -484.644    -667.345     -74.803
  O     -479.557    -671.970     -76.457
  O     -481.748    -672.856     -77.436
  H     -482.191    -664.982     -74.842
  H     -479.277    -672.819     -76.857
  H     -486.267    -663.198     -75.119
  H     -484.792    -669.382     -74.150
  H     -483.361    -666.543     -76.197
  H     -482.413    -667.448     -73.398
  H     -480.162    -667.489     -74.332
  H     -481.005    -668.710     -76.718
  H     -480.022    -670.041     -74.927
  H     -489.562    -665.525     -73.119
  H     -488.990    -667.184     -72.935
  H     -481.420    -669.847     -73.893
  P     -479.105    -666.352     -76.458
  C     -478.944    -665.193     -78.786
  O     -478.937    -665.045     -77.369
  O     -478.939    -667.564     -77.505
  O     -478.165    -666.461     -75.311
  H     -478.017    -667.872     -77.507
  H     -479.520    -664.368     -79.217
  H     -479.405    -666.141     -79.088
  H     -477.925    -665.145     -79.146
  H     -480.491    -669.900     -79.848
  H     -481.317    -671.429     -79.666
  H     -479.623    -671.297     -79.258

 3  4  5  6  7  8  9  10  11  12  22  25  29  30  31  32 0
 6-311+G(2d,p)
 ****
 33  36  37 0
 6-311+G(2d,p)
 ****
 1  2  13  14  15  16  17  18  19  20  21  23  24  26 0
 3-21G
 ****
 27  28  34  35  38  39  40  41  42  43  44  45  46  47  48 0
 3-21G
 ****


