%nproc=1
%NoSave
%Mem=1900MB
#P OB98/GEN NMR

erre ene a

0 1
  C       98.548      97.313     361.435
  O       99.198      98.333     362.161
  H       98.188      97.729     360.490
  H       97.692      96.937     362.001
  H       99.241      96.497     361.221
  P       99.832      97.932     363.583
  C      102.009      99.291     363.144
  O      100.841      99.134     363.940
  C      101.671     100.011     361.836
  O      100.927     101.217     362.135
  C      102.906     100.414     361.028
  O      102.681     100.133     359.646
  C      103.033     101.908     361.260
  O      103.706     102.567     360.191
  C      101.573     102.322     361.476
  N      101.465     103.549     362.263
  C      101.502     104.756     361.560
  O      101.634     104.754     360.333
  N      101.444     105.933     362.261
  C      101.415     105.909     363.557
  N      101.381     107.110     364.193
  C      101.423     104.660     364.341
  C      101.444     103.530     363.639
  O      100.805      96.720     363.212
  O       98.843      97.612     364.653
  H      104.635     102.247     360.173
  H      101.102      96.236     364.019
  H      101.414     104.694     365.423
  H      101.453     102.563     364.133
  H      101.070     102.480     360.510
  H      103.610     102.085     362.177
  H      103.809      99.894     361.348
  H      101.004      99.371     361.247
  H      101.388     107.946     363.621
  H      102.423      98.303     362.921
  H      101.388     107.212     365.199
  H      102.748      99.873     363.703
  P      103.721      99.125     358.954
  C      102.624      98.154     356.817
  O      103.451      99.163     357.370
  O      103.198      97.681     359.400
  O      105.140      99.366     359.352
  H      103.723      97.345     360.150
  H      102.534      98.305     355.762
  H      101.655      98.201     357.268
  H      103.059      97.194     357.004

 6  7  8  9  10  11  12  13  14  15  16  26  30  31  32  33  35 0
 6-311+G(2d,p)
 ****
 37  38 0
 6-311+G(2d,p)
 ****
 1  2  3  4  5  17  18  19  20  21  22  23  24  25 0
 3-21G
 ****
 27  28  29  34  36  39  40  41  42  43  44  45  46 0
 3-21G
 ****


