%nproc=1
%NoSave
%Mem=1900MB
#P OB98/GEN NMR

erre ene a

0 1
  C      507.824    -386.227    -517.236
  O      507.057    -385.141    -517.720
  H      507.903    -386.981    -518.024
  H      507.324    -386.675    -516.369
  H      508.829    -385.895    -516.959
  P      506.966    -383.842    -516.775
  C      508.786    -382.722    -518.308
  O      508.343    -383.050    -517.002
  C      510.016    -381.827    -518.254
  O      509.641    -380.536    -517.698
  C      511.157    -382.390    -517.390
  O      512.402    -382.026    -517.986
  C      510.993    -381.644    -516.075
  O      512.210    -381.611    -515.324
  C      510.491    -380.279    -516.565
  N      509.784    -379.528    -515.521
  C      510.574    -378.806    -514.620
  O      511.805    -378.818    -514.721
  N      509.962    -378.113    -513.605
  C      508.671    -378.196    -513.467
  N      508.122    -377.507    -512.421
  C      507.801    -378.980    -514.363
  C      508.418    -379.615    -515.362
  O      507.138    -384.488    -515.320
  O      505.727    -383.033    -516.954
  H      512.398    -382.517    -514.998
  H      507.844    -385.150    -515.270
  H      506.734    -379.027    -514.190
  H      507.863    -380.206    -516.074
  H      511.325    -379.659    -516.916
  H      510.230    -382.125    -515.457
  H      511.096    -383.477    -517.279
  H      510.365    -381.641    -519.283
  H      508.757    -377.000    -511.819
  H      507.990    -382.214    -518.862
  H      507.143    -377.545    -512.182
  H      509.012    -383.659    -518.831
  P      513.163    -383.083    -518.925
  C      512.223    -381.806    -520.971
  O      512.497    -383.078    -520.379
  O      513.381    -384.430    -518.325
  O      514.572    -382.356    -519.188
  H      515.271    -383.043    -519.142
  H      511.782    -381.949    -521.935
  H      513.135    -381.257    -521.074
  H      511.547    -381.260    -520.347

 6  7  8  9  10  11  12  13  14  15  16  26  30  31  32  33  35 0
 6-311+G(2d,p)
 ****
 37  38 0
 6-311+G(2d,p)
 ****
 1  2  3  4  5  17  18  19  20  21  22  23  24  25 0
 3-21G
 ****
 27  28  29  34  36  39  40  41  42  43  44  45  46 0
 3-21G
 ****


