%nproc=1
%NoSave
%Mem=1900MB
#P OB98/GEN NMR

erre ene a

0 1
  C       89.641    -261.573     237.623
  O       90.198    -260.778     236.584
  P       89.196    -260.031     235.581
  C       89.105    -257.778     236.863
  O       88.397    -258.937     236.444
  C       88.181    -256.563     236.934
  O       88.913    -255.445     237.504
  C       87.628    -256.102     235.580
  O       86.317    -255.574     235.812
  C       88.561    -254.966     235.200
  O       87.980    -254.089     234.237
  C       88.808    -254.345     236.572
  N       91.075    -250.107     234.831
  C       89.839    -250.611     234.630
  N       89.307    -251.746     235.129
  C       90.197    -252.385     235.908
  C       91.504    -252.008     236.175
  C       91.943    -250.805     235.600
  N       93.199    -250.284     235.809
  N       92.115    -252.935     236.996
  C       91.196    -253.851     237.219
  N       90.015    -253.547     236.603
  O       88.092    -261.154     235.288
  O       89.811    -259.531     234.320
  H       87.222    -253.637     234.657
  H       88.158    -261.451     234.359
  H       89.189    -250.020     233.990
  H       91.334    -254.744     237.812
  H       87.974    -253.708     236.896
  H       89.486    -255.371     234.773
  H       87.593    -256.889     234.819
  H       87.358    -256.794     237.624
  H       89.898    -257.571     236.140
  H       93.391    -249.353     235.476
  H       93.783    -250.695     236.530
  H       89.563    -257.963     237.839
  P       85.264    -255.691     234.609
  C       84.345    -257.964     235.456
  O       84.969    -257.251     234.406
  O       86.127    -255.293     233.321
  O       84.065    -254.814     234.764
  H       85.547    -254.911     232.636
  H       83.711    -258.742     235.027
  H       83.731    -257.311     236.087
  H       85.116    -258.435     236.076
  H       90.429    -262.003     238.204
  H       89.046    -262.353     237.195
  H       89.028    -260.961     238.251

 3  4  5  6  7  8  9  10  11  12  22  25  29  30  31  32 0
 6-311+G(2d,p)
 ****
 33  36  37 0
 6-311+G(2d,p)
 ****
 1  2  13  14  15  16  17  18  19  20  21  23  24  26 0
 3-21G
 ****
 27  28  34  35  38  39  40  41  42  43  44  45  46  47  48 0
 3-21G
 ****


