%nproc=1
%NoSave
%Mem=1900MB
#P OB98/GEN NMR

erre ene a

0 1
  C     -255.567    -333.812    -128.381
  O     -256.191    -332.591    -128.786
  P     -257.378    -332.039    -127.856
  C     -257.186    -329.464    -128.051
  O     -257.878    -330.635    -128.456
  C     -256.087    -329.087    -129.050
  O     -256.657    -328.765    -130.350
  C     -255.251    -327.880    -128.619
  O     -253.916    -328.080    -129.095
  C     -255.878    -326.737    -129.395
  O     -254.995    -325.622    -129.491
  C     -256.200    -327.445    -130.709
  N     -257.251    -323.128    -133.221
  C     -256.150    -323.541    -132.556
  N     -255.958    -324.702    -131.891
  C     -257.042    -325.490    -131.999
  C     -258.238    -325.200    -132.635
  C     -258.324    -323.951    -133.268
  N     -259.452    -323.515    -133.924
  N     -259.131    -326.242    -132.486
  C     -258.485    -327.139    -131.769
  N     -257.211    -326.744    -131.477
  O     -256.622    -331.624    -126.508
  O     -258.454    -333.039    -127.593
  H     -255.502    -324.860    -129.845
  H     -256.834    -332.260    -125.800
  H     -255.314    -322.847    -132.551
  H     -258.893    -328.081    -131.431
  H     -255.320    -327.549    -131.355
  H     -256.795    -326.405    -128.893
  H     -255.236    -327.694    -127.539
  H     -255.432    -329.956    -129.186
  H     -256.737    -329.616    -127.065
  H     -259.443    -322.591    -134.327
  H     -260.275    -324.099    -133.927
  H     -257.908    -328.648    -127.928
  P     -252.782    -328.293    -127.983
  C     -251.007    -329.612    -129.336
  O     -251.391    -328.375    -128.768
  O     -253.024    -329.793    -127.477
  O     -252.838    -327.308    -126.859
  H     -252.692    -329.898    -126.568
  H     -250.557    -329.426    -130.314
  H     -251.856    -330.290    -129.463
  H     -250.266    -330.087    -128.689
  H     -254.798    -334.069    -129.080
  H     -256.298    -334.593    -128.351
  H     -255.138    -333.688    -127.409

 3  4  5  6  7  8  9  10  11  12  22  25  29  30  31  32 0
 6-311+G(2d,p)
 ****
 33  36  37 0
 6-311+G(2d,p)
 ****
 1  2  13  14  15  16  17  18  19  20  21  23  24  26 0
 3-21G
 ****
 27  28  34  35  38  39  40  41  42  43  44  45  46  47  48 0
 3-21G
 ****


