%nproc=1
%NoSave
%Mem=1900MB
#P OB98/GEN NMR

erre ene a

0 1
  C     -656.310     501.184     404.998
  O     -656.790     502.459     405.434
  P     -655.735     503.548     405.960
  C     -655.235     504.737     403.729
  O     -655.834     504.838     405.016
  C     -656.118     505.404     402.666
  O     -657.303     504.636     402.401
  C     -656.603     506.782     403.072
  O     -655.561     507.734     402.983
  C     -657.758     506.994     402.097
  O     -657.277     507.445     400.827
  C     -658.335     505.561     401.966
  N     -659.570     505.367     402.708
  C     -660.728     505.875     402.110
  O     -660.659     506.485     401.040
  N     -661.932     505.701     402.746
  C     -661.969     505.074     403.884
  N     -663.191     504.920     404.475
  C     -660.771     504.524     404.550
  C     -659.618     504.712     403.925
  O     -654.348     503.039     406.194
  O     -656.397     504.062     407.326
  H     -658.015     507.296     400.195
  H     -655.686     504.327     407.939
  H     -660.861     504.006     405.499
  H     -658.691     504.355     404.339
  H     -658.535     505.332     400.914
  H     -658.481     507.738     402.465
  H     -656.992     506.747     404.105
  H     -655.535     505.475     401.734
  H     -663.999     505.314     404.004
  H     -655.092     503.679     403.478
  H     -663.329     504.400     405.328
  H     -654.242     505.196     403.759
  P     -655.024     508.377     404.353
  C     -652.546     507.970     403.721
  O     -653.534     508.907     404.099
  O     -654.801     507.093     405.292
  O     -655.950     509.363     404.997
  H     -655.000     507.323     406.216
  H     -651.695     508.516     403.285
  H     -652.924     507.268     402.983
  H     -652.201     507.429     404.604
  H     -657.136     500.581     404.682
  H     -655.803     500.699     405.806
  H     -655.633     501.318     404.181

 3  4  5  6  7  8  9  10  11  12  13  23  27  28  29  30  32 0
 6-311+G(2d,p)
 ****
 34  35 0
 6-311+G(2d,p)
 ****
 1  2  14  15  16  17  18  19  20  21  22  24  25  26 0
 3-21G
 ****
 31  33  36  37  38  39  40  41  42  43  44  45  46 0
 3-21G
 ****


