%nproc=1
%NoSave
%Mem=1900MB
#P OB98/GEN NMR

erre ene a

0 1
  C      432.666    -300.766     -19.424
  O      433.727    -299.853     -19.236
  H      431.770    -300.363     -18.947
  H      432.902    -301.732     -18.970
  H      432.463    -300.898     -20.492
  P      435.189    -300.265     -19.746
  C      436.042    -300.501     -22.175
  O      435.328    -299.706     -21.241
  C      436.058    -299.836     -23.558
  O      434.718    -299.897     -24.124
  C      436.474    -298.356     -23.531
  O      437.113    -298.069     -24.781
  C      435.128    -297.669     -23.445
  O      435.228    -296.297     -23.736
  C      434.311    -298.539     -24.404
  N      432.877    -298.357     -24.246
  C      432.350    -297.154     -24.723
  O      433.089    -296.312     -25.235
  N      431.007    -296.919     -24.583
  C      430.266    -297.780     -23.960
  N      428.943    -297.481     -23.843
  C      430.792    -299.036     -23.387
  C      432.092    -299.261     -23.569
  O      435.553    -301.704     -19.580
  O      436.171    -299.316     -18.911
  H      435.640    -296.155     -24.617
  H      436.609    -299.831     -18.209
  H      430.135    -299.709     -22.858
  H      432.572    -300.155     -23.181
  H      434.576    -298.326     -25.448
  H      434.721    -297.742     -22.432
  H      437.143    -298.116     -22.701
  H      436.709    -300.420     -24.221
  H      428.629    -296.604     -24.242
  H      435.540    -301.472     -22.234
  H      428.276    -298.064     -23.362
  H      437.069    -300.657     -21.831
  P      438.678    -298.303     -25.033
  C      440.026    -300.391     -25.729
  O      438.879    -299.584     -25.975
  O      439.499    -298.334     -23.782
  O      439.136    -297.082     -25.965
  H      440.067    -296.864     -25.773
  H      440.043    -301.207     -26.421
  H      439.987    -300.771     -24.730
  H      440.910    -299.801     -25.852

 6  7  8  9  10  11  12  13  14  15  16  26  30  31  32  33  35 0
 6-311+G(2d,p)
 ****
 37  38 0
 6-311+G(2d,p)
 ****
 1  2  3  4  5  17  18  19  20  21  22  23  24  25 0
 3-21G
 ****
 27  28  29  34  36  39  40  41  42  43  44  45  46 0
 3-21G
 ****


