%nproc=1
%NoSave
%Mem=1900MB
#P OB98/GEN NMR

erre ene a

0 1
  C       19.492    -124.889     388.844
  O       20.367    -124.116     388.048
  H       20.054    -125.374     389.647
  H       18.741    -124.228     389.289
  H       18.983    -125.646     388.236
  P       21.443    -124.916     387.165
  C       19.583    -125.492     385.439
  O       20.861    -124.919     385.664
  C       18.993    -124.981     384.121
  O       18.600    -123.592     384.296
  C       19.976    -125.045     382.945
  O       19.258    -125.423     381.766
  C       20.464    -123.615     382.815
  O       20.920    -123.318     381.499
  C       19.226    -122.826     383.243
  N       17.325    -118.320     384.723
  C       16.733    -119.489     384.402
  N       17.311    -120.650     384.023
  C       18.656    -120.535     384.041
  C       19.406    -119.408     384.347
  C       18.684    -118.252     384.696
  N       19.282    -117.049     384.988
  N       20.758    -119.678     384.218
  C       20.817    -120.942     383.844
  N       19.573    -121.497     383.716
  O       21.223    -126.430     387.652
  O       22.859    -124.479     387.313
  H       21.558    -124.012     381.230
  H       21.684    -126.564     388.504
  H       15.647    -119.492     384.442
  H       21.728    -121.490     383.642
  H       18.502    -122.702     382.424
  H       21.295    -123.440     383.515
  H       20.789    -125.747     383.113
  H       18.071    -125.542     383.909
  H       18.917    -125.224     386.268
  H       18.681    -116.254     385.171
  H       20.282    -116.960     384.914
  H       19.678    -126.585     385.401
  P       19.996    -126.437     380.762
  C       18.585    -128.494     381.483
  O       18.991    -127.643     380.418
  O       21.111    -127.124     381.689
  O       20.609    -125.767     379.574
  H       21.977    -127.089     381.240
  H       17.922    -129.245     381.107
  H       18.082    -127.916     382.230
  H       19.446    -128.962     381.914

 6  7  8  9  10  11  12  13  14  15  25  28  32  33  34  35 0
 6-311+G(2d,p)
 ****
 36  39  40 0
 6-311+G(2d,p)
 ****
 1  2  3  4  5  16  17  18  19  20  21  22  23  24 0
 3-21G
 ****
 26  27  29  30  31  37  38  41  42  43  44  45  46  47 0
 3-21G
 ****
 48 0
 3-21G
 ****


