%nproc=1
%NoSave
%Mem=1900MB
#P OB98/GEN NMR

erre ene a

0 1
  C     -115.899     369.106    -289.532
  O     -116.947     368.681    -288.648
  P     -116.511     368.267    -287.154
  C     -118.573     369.369    -286.039
  O     -117.841     368.170    -286.255
  C     -119.922     369.075    -285.361
  O     -120.921     368.677    -286.348
  C     -119.864     367.968    -284.308
  O     -120.802     368.292    -283.275
  C     -120.370     366.755    -285.064
  O     -120.812     365.732    -284.183
  C     -121.452     367.403    -285.924
  N     -124.924     364.174    -287.825
  C     -124.848     364.827    -286.649
  N     -123.874     365.658    -286.212
  C     -122.923     365.816    -287.151
  C     -122.863     365.205    -288.396
  C     -123.921     364.336    -288.729
  N     -123.987     363.653    -289.913
  N     -121.706     365.572    -289.059
  C     -121.084     366.389    -288.228
  N     -121.800     366.588    -287.076
  O     -115.775     369.578    -286.614
  O     -115.617     367.072    -287.102
  H     -120.063     365.456    -283.616
  H     -114.815     369.425    -286.557
  H     -125.681     364.662    -285.965
  H     -120.128     366.852    -288.406
  H     -122.378     367.579    -285.364
  H     -119.561     366.341    -285.691
  H     -118.864     367.808    -283.878
  H     -120.278     370.013    -284.893
  H     -118.756     369.876    -286.998
  H     -124.770     363.030    -290.065
  H     -123.222     363.733    -290.571
  H     -117.971     370.062    -285.444
  P     -120.179     368.723    -281.856
  C     -122.558     369.364    -281.045
  O     -121.379     368.623    -280.798
  O     -119.930     370.298    -282.011
  O     -118.927     367.986    -281.494
  H     -119.218     370.582    -281.411
  H     -123.423     368.751    -280.774
  H     -122.650     369.660    -282.098
  H     -122.547     370.263    -280.426
  H     -116.315     369.352    -290.487
  H     -115.186     368.316    -289.646
  H     -115.414     369.967    -289.122

 3  4  5  6  7  8  9  10  11  12  22  25  29  30  31  32 0
 6-311+G(2d,p)
 ****
 33  36  37 0
 6-311+G(2d,p)
 ****
 1  2  13  14  15  16  17  18  19  20  21  23  24  26 0
 3-21G
 ****
 27  28  34  35  38  39  40  41  42  43  44  45  46  47  48 0
 3-21G
 ****


