%nproc=1
%NoSave
%Mem=1900MB
#P OB98/GEN NMR

erre ene a

0 1
  C      349.399      -1.002      89.420
  O      349.046      -1.516      88.128
  P      349.962      -1.076      86.883
  C      349.943       0.803      85.080
  O      349.369       0.283      86.272
  C      348.898       1.604      84.294
  O      347.973       0.732      83.622
  C      348.040       2.494      85.176
  O      348.744       3.667      85.543
  C      346.829       2.754      84.285
  O      347.014       3.922      83.467
  C      346.761       1.477      83.408
  N      345.586       0.669      83.684
  C      344.353       1.280      83.441
  O      344.304       2.445      83.034
  N      343.206       0.565      83.681
  C      343.286      -0.643      84.151
  N      342.111      -1.295      84.376
  C      344.567      -1.317      84.447
  C      345.666      -0.607      84.194
  O      349.609      -2.166      85.772
  O      351.424      -1.049      87.189
  H      347.340       4.622      84.074
  H      350.392      -2.345      85.210
  H      344.582      -2.321      84.844
  H      346.654      -1.022      84.383
  H      346.742       1.745      82.343
  H      345.923       2.920      84.873
  H      347.724       1.943      86.075
  H      349.421       2.211      83.542
  H      341.253      -0.806      84.165
  H      350.333      -0.002      84.463
  H      342.059      -2.238      84.743
  H      350.805       1.437      85.349
  P      349.302       3.769      87.040
  C      348.229       3.617      89.372
  O      348.028       3.496      87.975
  O      349.505       5.347      87.218
  O      350.538       3.000      87.366
  H      349.935       5.541      88.070
  H      347.256       3.619      89.872
  H      348.739       4.556      89.602
  H      348.819       2.773      89.738
  H      348.711      -1.372      90.151
  H      349.359       0.067      89.402
  H      350.390      -1.318      89.671

 3  4  5  6  7  8  9  10  11  12  13  21  23  27  28  29  30  32 0
 6-311+G(2d,p)
 ****
 34  35 0
 6-311+G(2d,p)
 ****
 1  2  14  15  16  17  18  19  20  22  24  25  26 0
 3-21G
 ****
 31  33  36  37  38  39  40  41  42  43  44  45  46 0
 3-21G
 ****


