%nproc=1
%NoSave
%Mem=1900MB
#P OB98/GEN NMR

erre ene a

0 1
  C       90.040     149.342      -0.501
  O       89.329     148.137      -0.301
  H       89.700     150.092       0.216
  H       91.104     149.154      -0.335
  H       89.902     149.710      -1.521
  P       87.799     148.099      -0.780
  C       85.553     148.881       0.257
  O       86.920     148.570       0.481
  C       84.699     148.414       1.435
  O       84.615     146.961       1.398
  C       85.247     148.818       2.812
  O       84.145     149.166       3.655
  C       85.876     147.535       3.326
  O       85.937     147.482       4.747
  C       84.955     146.486       2.712
  N       86.882     142.745       5.565
  C       86.053     143.767       5.859
  N       85.543     144.694       5.023
  C       85.915     144.446       3.756
  C       86.748     143.440       3.301
  C       87.260     142.567       4.277
  N       88.159     141.564       3.998
  N       86.938     143.552       1.936
  C       86.253     144.621       1.582
  N       85.619     145.195       2.647
  O       87.508     146.526      -0.874
  O       87.509     148.799      -2.063
  H       86.280     146.608       5.016
  H       87.757     146.200      -1.758
  H       85.771     143.863       6.905
  H       86.207     145.035       0.585
  H       84.028     146.351       3.283
  H       86.895     147.444       2.933
  H       85.962     149.648       2.778
  H       83.681     148.797       1.299
  H       85.213     148.371      -0.650
  H       88.554     141.059       4.776
  H       88.534     141.489       3.064
  H       85.447     149.961       0.115
  P       84.040     150.689       4.142
  C       85.588     152.402       5.346
  O       85.350     151.044       4.991
  O       82.884     150.642       5.248
  O       83.714     151.653       3.048
  H       82.382     151.476       5.249
  H       86.497     152.470       5.907
  H       84.774     152.763       5.939
  H       85.672     152.993       4.458

 6  7  8  9  10  11  12  13  14  15  25  28  32  33  34  35 0
 6-311+G(2d,p)
 ****
 36  39  40 0
 6-311+G(2d,p)
 ****
 1  2  3  4  5  16  17  18  19  20  21  22  23  24 0
 3-21G
 ****
 26  27  29  30  31  37  38  41  42  43  44  45  46  47 0
 3-21G
 ****
 48 0
 3-21G
 ****


