%nproc=1
%NoSave
%Mem=1900MB
#P OB98/GEN NMR

erre ene a

0 1
  C      527.302     449.438    -126.909
  O      528.387     449.018    -127.709
  P      529.917     449.365    -127.396
  C      530.004     451.249    -129.216
  O      530.198     450.886    -127.851
  C      531.308     451.759    -129.833
  O      531.051     452.142    -131.211
  C      531.814     453.033    -129.115
  O      533.224     453.068    -128.898
  C      531.216     454.159    -129.949
  O      531.866     455.406    -129.776
  C      531.265     453.564    -131.354
  N      529.554     457.646    -133.868
  C      530.755     457.472    -133.210
  N      531.508     458.581    -133.036
  N      531.149     456.307    -132.716
  C      530.240     455.318    -132.866
  C      529.020     455.373    -133.501
  C      528.608     456.650    -134.059
  O      527.502     456.872    -134.562
  N      528.330     454.199    -133.392
  C      529.119     453.433    -132.654
  N      530.274     454.083    -132.283
  O      530.922     448.324    -127.756
  O      529.896     449.492    -125.789
  H      531.442     456.047    -130.364
  H      530.759     449.178    -125.468
  H      529.266     458.578    -134.139
  H      528.895     452.426    -132.341
  H      532.235     453.721    -131.826
  H      530.177     454.291    -129.616
  H      531.159     459.496    -133.274
  H      531.403     453.083    -128.088
  H      532.267     458.521    -132.344
  H      532.051     450.954    -129.836
  H      529.237     452.035    -129.223
  H      529.611     450.407    -129.785
  P      534.058     453.991    -127.910
  C      534.846     455.541    -129.800
  O      534.175     455.460    -128.552
  O      535.563     453.440    -128.007
  O      533.589     453.981    -126.492
  H      535.976     453.453    -127.119
  H      535.093     456.591    -129.997
  H      534.191     455.189    -130.596
  H      535.761     454.943    -129.787
  H      526.387     449.077    -127.331
  H      527.280     450.507    -126.870
  H      527.416     449.048    -125.919

 3  4  5  6  7  8  9  10  11  12  23  26  30  31 0
 6-311+G(2d,p)
 ****
 33  35  36  37  38 0
 6-311+G(2d,p)
 ****
 1  2  13  14  15  16  17  18  19  20  21  22  24  25 0
 3-21G
 ****
 27  28  29  32  34  39  40  41  42  43  44  45  46  47  48  49 0
 3-21G
 ****


