%nproc=1
%NoSave
%Mem=1900MB
#P OB98/GEN NMR

erre ene a

0 1
  C      100.026      98.593     297.423
  O       99.267      97.515     296.919
  H       99.765      99.495     296.865
  H      101.095      98.403     297.294
  H       99.802      98.762     298.481
  P       99.470      96.062     297.574
  C      100.205      95.184     295.246
  O      100.545      95.346     296.616
  C      101.438      94.801     294.436
  O      102.415      95.865     294.429
  C      102.197      93.588     294.961
  O      101.545      92.350     294.721
  C      103.485      93.722     294.173
  O      103.270      93.300     292.815
  C      103.722      95.249     294.256
  N      104.615      95.625     295.353
  C      105.805      96.275     295.002
  O      106.070      96.502     293.821
  N      106.687      96.626     295.997
  C      106.416      96.332     297.234
  N      107.328      96.696     298.175
  C      105.186      95.629     297.645
  C      104.342      95.309     296.670
  O       98.220      95.281     297.835
  O      100.341      96.335     298.891
  H      102.640      93.930     292.417
  H      100.486      95.468     299.340
  H      105.025      95.379     298.685
  H      103.415      94.786     296.894
  H      104.139      95.634     293.316
  H      104.305      93.120     294.575
  H      102.430      93.702     296.031
  H      101.115      94.652     293.396
  H      108.163      97.174     297.866
  H       99.777      96.128     294.890
  H      107.240      96.439     299.152
  H       99.456      94.393     295.138
  P      102.010      91.096     295.611
  C      103.003      89.951     293.480
  O      103.212      90.402     294.810
  O      100.790      90.070     295.456
  O      102.322      91.407     297.041
  H      100.198      90.125     296.229
  H      103.906      89.518     293.104
  H      102.721      90.778     292.863
  H      102.224      89.217     293.470

 6  7  8  9  10  11  12  13  14  15  16  26  30  31  32  33  35 0
 6-311+G(2d,p)
 ****
 37  38 0
 6-311+G(2d,p)
 ****
 1  2  3  4  5  17  18  19  20  21  22  23  24  25 0
 3-21G
 ****
 27  28  29  34  36  39  40  41  42  43  44  45  46 0
 3-21G
 ****


