%nproc=1
%NoSave
%Mem=1900MB
#P OB98/GEN NMR

erre ene a

0 1
  C      -59.933    -231.500      16.249
  O      -61.299    -231.220      16.030
  H      -59.403    -230.552      16.392
  H      -59.497    -232.013      15.388
  H      -59.807    -232.108      17.150
  P      -62.282    -232.419      15.603
  C      -62.684    -233.874      17.683
  O      -63.136    -232.750      16.934
  C      -63.221    -233.847      19.115
  O      -62.922    -232.562      19.722
  C      -64.739    -234.064      19.216
  O      -65.015    -235.018      20.246
  C      -65.273    -232.692      19.606
  O      -66.533    -232.772      20.273
  C      -64.106    -232.146      20.433
  N      -64.153    -230.695      20.602
  C      -64.484    -230.222      21.880
  O      -64.751    -231.019      22.782
  N      -64.539    -228.869      22.091
  C      -64.342    -228.050      21.100
  N      -64.423    -226.721      21.378
  C      -64.037    -228.504      19.725
  C      -63.952    -229.824      19.554
  O      -61.599    -233.596      14.989
  O      -63.363    -231.733      14.644
  H      -66.823    -231.858      20.496
  H      -63.800    -232.426      14.094
  H      -63.889    -227.786      18.934
  H      -63.723    -230.248      18.577
  H      -64.085    -232.609      21.432
  H      -65.408    -232.081      18.703
  H      -65.188    -234.417      18.287
  H      -62.671    -234.595      19.703
  H      -64.633    -226.451      22.330
  H      -61.588    -233.878      17.684
  H      -64.294    -225.997      20.683
  H      -63.046    -234.785      17.185
  P      -65.216    -236.541      19.766
  C      -62.915    -237.314      18.847
  O      -63.809    -237.304      19.949
  O      -65.372    -236.401      18.180
  O      -66.396    -237.217      20.385
  H      -66.313    -236.460      17.927
  H      -62.029    -237.853      19.111
  H      -62.657    -236.308      18.588
  H      -63.385    -237.789      18.011

 6  7  8  9  10  11  12  13  14  15  16  26  30  31  32  33  35 0
 6-311+G(2d,p)
 ****
 37  38 0
 6-311+G(2d,p)
 ****
 1  2  3  4  5  17  18  19  20  21  22  23  24  25 0
 3-21G
 ****
 27  28  29  34  36  39  40  41  42  43  44  45  46 0
 3-21G
 ****


