%nproc=1
%NoSave
%Mem=1900MB
#P OB98/GEN NMR

erre ene a

0 1
  C      -14.454     192.609     883.970
  O      -13.248     192.617     884.717
  P      -13.173     193.196     886.205
  C      -12.411     190.930     887.266
  O      -12.097     192.312     887.025
  C      -11.183     190.108     887.689
  O      -10.219     190.071     886.617
  C      -10.480     190.790     888.874
  O      -10.938     190.562     890.191
  C       -8.983     190.504     888.660
  O       -8.530     189.409     889.433
  C       -8.908     190.191     887.163
  N       -4.326     191.609     885.472
  C       -4.729     190.386     885.981
  N       -3.743     189.505     886.236
  N       -5.972     190.073     886.229
  C       -6.831     191.104     886.013
  C       -6.573     192.356     885.495
  C       -5.186     192.653     885.187
  O       -4.779     193.771     884.819
  N       -7.676     193.154     885.474
  C       -8.622     192.409     886.017
  N       -8.158     191.166     886.384
  O      -14.460     193.553     886.865
  O      -12.357     194.574     885.969
  H       -8.809     189.533     890.359
  H      -12.685     195.234     886.600
  H       -3.352     191.804     885.380
  H       -9.645     192.723     886.191
  H       -8.420     189.217     887.004
  H       -8.390     191.359     888.965
  H       -2.754     189.763     886.202
  H      -10.579     191.874     888.731
  H       -3.983     188.660     886.761
  H      -11.448     189.060     887.875
  H      -12.845     190.538     886.328
  H      -13.172     190.864     888.033
  P      -11.044     191.657     891.367
  C      -13.443     192.460     890.881
  O      -12.576     191.782     891.799
  O      -10.765     193.066     890.613
  O      -10.080     191.468     892.492
  H      -10.469     193.732     891.265
  H      -14.345     192.753     891.398
  H      -13.686     191.791     890.058
  H      -12.953     193.356     890.487
  H      -14.274     192.179     883.007
  H      -14.807     193.612     883.852
  H      -15.190     192.030     884.487

 3  4  5  6  7  8  9  10  11  12  23  26  30  31 0
 6-311+G(2d,p)
 ****
 33  35  36  37  38 0
 6-311+G(2d,p)
 ****
 1  2  13  14  15  16  17  18  19  20  21  22  24  25 0
 3-21G
 ****
 27  28  29  32  34  39  40  41  42  43  44  45  46  47  48  49 0
 3-21G
 ****


