%nproc=1
%NoSave
%Mem=1900MB
#P OB98/GEN NMR

erre ene a

0 1
  C      506.632    -234.130      84.232
  O      508.023    -234.330      84.087
  H      506.466    -233.392      85.021
  H      506.143    -235.064      84.522
  H      506.194    -233.753      83.303
  P      508.548    -235.255      82.887
  C      509.591    -233.192      81.742
  O      509.808    -234.507      82.238
  C      510.543    -232.216      82.431
  O      510.307    -232.210      83.858
  C      512.014    -232.564      82.255
  O      512.476    -232.213      80.967
  C      512.634    -231.767      83.393
  O      512.799    -230.389      83.022
  C      511.569    -231.919      84.499
  N      511.910    -232.946      85.483
  C      511.433    -232.748      86.775
  O      510.784    -231.761      87.113
  N      511.755    -233.723      87.684
  C      512.581    -234.786      87.460
  O      512.911    -235.581      88.334
  C      513.077    -234.929      86.084
  C      512.723    -234.018      85.173
  O      507.511    -235.705      81.914
  O      509.222    -236.500      83.640
  H      513.681    -230.321      82.607
  H      508.634    -237.275      83.572
  H      511.428    -233.590      88.629
  H      513.723    -235.767      85.863
  H      513.085    -234.103      84.156
  H      511.435    -230.967      85.032
  H      513.618    -232.143      83.674
  H      512.174    -233.632      82.447
  H      510.334    -231.205      82.050
  H      508.558    -232.902      81.953
  H      509.750    -233.191      80.659
  P      513.924    -232.686      80.480
  C      512.966    -234.913      79.623
  O      513.722    -233.749      79.296
  O      514.854    -233.117      81.564
  O      514.503    -231.405      79.715
  H      515.320    -231.104      80.155
  H      512.896    -235.546      78.763
  H      511.984    -234.625      79.934
  H      513.451    -235.442      80.417

 6  7  8  9  10  11  12  13  14  15  16  26  31  32  33  34  35 0
 6-311+G(2d,p)
 ****
 36  37 0
 6-311+G(2d,p)
 ****
 1  2  3  4  5  17  18  19  20  21  22  23  24  25 0
 3-21G
 ****
 27  28  29  30  38  39  40  41  42  43  44  45 0
 3-21G
 ****


