%nproc=1
%NoSave
%Mem=1900MB
#P OB98/GEN NMR

erre ene a

0 1
  C     -127.837    -258.345    -204.121
  O     -129.201    -258.044    -203.858
  P     -129.536    -257.260    -202.494
  C     -129.920    -259.416    -201.100
  O     -129.114    -258.262    -201.313
  C     -129.365    -260.253    -199.954
  O     -128.041    -260.718    -200.289
  C     -129.210    -259.507    -198.638
  O     -130.439    -259.418    -197.933
  C     -128.220    -260.399    -197.907
  O     -128.918    -261.508    -197.310
  C     -127.312    -260.890    -199.047
  N     -122.893    -259.890    -196.784
  C     -123.931    -260.704    -196.379
  N     -123.759    -261.365    -195.213
  N     -125.042    -260.853    -197.047
  C     -125.062    -260.161    -198.214
  C     -124.098    -259.319    -198.724
  C     -122.891    -259.124    -197.945
  O     -121.969    -258.365    -198.223
  N     -124.471    -258.811    -199.937
  C     -125.642    -259.365    -200.183
  N     -126.057    -260.172    -199.147
  O     -131.135    -257.288    -202.446
  O     -128.998    -255.873    -202.413
  H     -128.243    -262.150    -197.019
  H     -131.464    -256.537    -201.913
  H     -122.054    -259.823    -196.237
  H     -126.217    -259.215    -201.084
  H     -127.094    -261.960    -198.951
  H     -127.693    -259.882    -197.101
  H     -122.875    -261.395    -194.720
  H     -128.766    -258.517    -198.796
  H     -124.491    -261.996    -194.917
  H     -130.006    -261.132    -199.829
  H     -129.930    -260.021    -202.010
  H     -130.943    -259.096    -200.878
  P     -130.611    -258.165    -196.939
  C     -130.102    -259.529    -194.787
  O     -129.691    -258.504    -195.672
  O     -132.104    -258.336    -196.394
  O     -130.390    -256.837    -197.584
  H     -132.466    -257.467    -196.124
  H     -130.584    -260.351    -195.324
  H     -130.797    -259.115    -194.050
  H     -129.223    -259.921    -194.268
  H     -127.760    -258.864    -205.054
  H     -127.450    -258.962    -203.337
  H     -127.274    -257.436    -204.170

 3  4  5  6  7  8  9  10  11  12  23  26  30  31  33  0
 6-311+G(2d,p)
 ****
 35  36  37  38 0
 6-311+G(2d,p)
 ****
 1  2  13  14  15  16  17  18  19  20  21  22  24  25  27  28  29 0
 3-21G
 ****
 32  34  39  40  41  42  43  44  45  46  47  48  49 0
 3-21G
 ****


