%nproc=1
%NoSave
%Mem=1900MB
#P OB98/GEN NMR

erre ene a

0 1
  C      271.299    -664.023     481.589
  O      271.977    -664.909     482.484
  P      271.283    -665.212     483.896
  C      271.808    -662.909     484.996
  O      271.997    -664.316     485.016
  C      271.989    -662.331     486.402
  O      271.059    -662.909     487.328
  C      273.362    -662.611     486.987
  O      274.332    -661.732     486.441
  C      273.116    -662.399     488.482
  O      273.345    -661.039     488.871
  C      271.629    -662.777     488.643
  N      271.430    -663.988     489.428
  C      271.188    -663.788     490.793
  O      271.167    -662.655     491.270
  N      270.994    -664.898     491.587
  C      271.078    -666.083     491.072
  N      270.878    -667.137     491.908
  C      271.359    -666.327     489.642
  C      271.525    -665.245     488.881
  O      271.766    -666.699     484.240
  O      269.786    -665.115     483.869
  H      273.104    -660.989     489.820
  H      271.080    -667.175     484.730
  H      271.421    -667.334     489.253
  H      271.737    -665.330     487.827
  H      271.085    -661.960     489.139
  H      273.790    -663.015     489.087
  H      273.643    -663.650     486.801
  H      271.816    -661.246     486.350
  H      270.688    -666.932     492.877
  H      270.811    -662.669     484.617
  H      270.924    -668.105     491.613
  H      272.523    -662.469     484.293
  P      275.217    -662.269     485.221
  C      276.992    -663.576     486.548
  O      276.706    -662.396     485.813
  O      275.344    -660.965     484.296
  O      274.698    -663.444     484.462
  H      275.786    -661.193     483.461
  H      278.074    -663.630     486.702
  H      276.674    -664.460     485.993
  H      276.495    -663.538     487.519
  H      271.873    -663.913     480.693
  H      271.180    -663.067     482.055
  H      270.337    -664.425     481.350

 3  4  5  6  7  8  9  10  11  12  13  21  23  27  28  29  30  32 0
 6-311+G(2d,p)
 ****
 34  35 0
 6-311+G(2d,p)
 ****
 1  2  14  15  16  17  18  19  20  22  24  25  26 0
 3-21G
 ****
 31  33  36  37  38  39  40  41  42  43  44  45  46 0
 3-21G
 ****


