%nproc=1
%NoSave
%Mem=1900MB
#P OB98/GEN NMR

erre ene a

0 1
  C     1573.982    2438.750    -893.470
  O     1573.118    2439.775    -893.890
  P     1572.489    2440.740    -892.770
  C     1571.945    2442.632    -894.510
  O     1571.469    2441.703    -893.560
  C     1570.855    2443.120    -895.400
  O     1569.765    2443.678    -894.640
  C     1571.261    2444.176    -896.390
  O     1571.993    2443.663    -897.500
  C     1569.923    2444.790    -896.790
  O     1569.294    2444.067    -897.870
  C     1569.097    2444.611    -895.500
  N     1568.864    2445.874    -894.780
  C     1567.886    2446.714    -895.390
  O     1567.301    2446.392    -896.420
  N     1567.656    2447.943    -894.800
  C     1568.321    2448.283    -893.720
  N     1568.018    2449.511    -893.180
  C     1569.339    2447.442    -893.100
  C     1569.552    2446.289    -893.690
  O     1573.713    2441.736    -892.420
  O     1571.944    2440.031    -891.550
  H     1568.385    2444.407    -897.920
  H     1573.632    2442.072    -891.510
  H     1569.893    2447.790    -892.190
  H     1570.308    2445.601    -893.300
  H     1568.112    2444.156    -895.730
  H     1569.992    2445.828    -897.100
  H     1571.853    2444.959    -895.880
  H     1570.437    2442.248    -895.940
  H     1567.312    2450.084    -893.670
  H     1572.743    2442.116    -895.150
  H     1568.455    2449.852    -892.330
  H     1572.436    2443.476    -893.970
  P     1572.852    2444.635    -898.410
  C     1574.062    2442.514    -899.120
  O     1573.474    2443.713    -899.530
  O     1574.112    2444.945    -897.490
  O     1572.182    2445.900    -898.890
  H     1574.689    2445.633    -897.870
  H     1574.304    2441.892    -900.000
  H     1573.374    2441.961    -898.500
  H     1575.003    2442.693    -898.600
  H     1574.318    2438.196    -894.321
  H     1573.462    2438.096    -892.801
  H     1574.824    2439.177    -892.967

 3  4  5  6  7  8  9  10  11  12  13  21  23  27  28  29  30  32 0
 6-311+G(2d,p)
 ****
 34  35 0
 6-311+G(2d,p)
 ****
 1  2  14  15  16  17  18  19  20  22  24  25  26 0
 3-21G
 ****
 31  33  36  37  38  39  40  41  42  43  44  45  46 0
 3-21G
 ****


