%nproc=1
%NoSave
%Mem=1900MB
#P OB98/GEN NMR

erre ene a

0 1
  C       51.259     399.429    -223.853
  O       50.996     398.391    -224.778
  H       50.572     399.329    -223.010
  H       51.095     400.400    -224.328
  H       52.286     399.361    -223.485
  P       52.015     398.247    -226.011
  C       49.974     397.750    -227.587
  O       51.247     397.360    -227.104
  C       49.702     397.123    -228.956
  O       50.757     397.521    -229.868
  C       49.654     395.594    -228.933
  O       48.673     395.158    -229.876
  C       51.036     395.195    -229.424
  O       51.052     393.879    -229.971
  C       51.336     396.323    -230.424
  N       52.766     396.481    -230.671
  C       53.464     395.341    -231.088
  O       52.873     394.269    -231.221
  N       54.812     395.432    -231.310
  C       55.431     396.544    -231.071
  N       56.775     396.561    -231.282
  C       54.747     397.759    -230.580
  C       53.429     397.659    -230.417
  O       53.111     397.247    -225.412
  O       52.564     399.540    -226.510
  H       50.916     393.235    -229.243
  H       52.729     396.495    -224.931
  H       55.308     398.662    -230.385
  H       52.846     398.505    -230.071
  H       50.841     396.126    -231.384
  H       51.754     395.223    -228.595
  H       49.422     395.193    -227.945
  H       48.768     397.540    -229.349
  H       57.207     395.703    -231.593
  H       49.914     398.841    -227.668
  H       57.366     397.354    -231.075
  H       49.222     397.423    -226.861
  P       47.730     393.916    -229.515
  C       47.355     392.888    -231.862
  O       46.777     393.594    -230.767
  O       47.043     393.987    -228.197
  O       48.758     392.677    -229.539
  H       48.531     392.090    -228.792
  H       46.616     392.741    -232.622
  H       47.713     391.938    -231.525
  H       48.170     393.455    -232.262

 6  7  8  9  10  11  12  13  14  15  16  26  30  31  32  33  35 0
 6-311+G(2d,p)
 ****
 37  38 0
 6-311+G(2d,p)
 ****
 1  2  3  4  5  17  18  19  20  21  22  23  24  25 0
 3-21G
 ****
 27  28  29  34  36  39  40  41  42  43  44  45  46 0
 3-21G
 ****


