%nproc=1
%NoSave
%Mem=1900MB
#P OB98/GEN NMR

erre ene a

0 1
  C      142.226     791.118    -285.381
  O      141.332     790.045    -285.551
  P      141.609     788.653    -284.803
  C      140.777     789.273    -282.448
  O      140.528     788.505    -283.626
  C      139.462     789.702    -281.807
  O      138.733     790.583    -282.686
  C      138.509     788.553    -281.507
  O      138.917     787.846    -280.352
  C      137.186     789.293    -281.360
  O      137.062     789.857    -280.047
  C      137.326     790.403    -282.411
  N      132.951     791.089    -284.949
  C      133.312     791.368    -283.681
  N      134.485     791.119    -283.061
  C      135.329     790.494    -283.899
  C      135.097     790.107    -285.215
  C      133.843     790.454    -285.757
  N      133.493     790.224    -287.065
  N      136.199     789.458    -285.729
  C      137.077     789.440    -284.747
  N      136.617     790.109    -283.647
  O      143.023     788.414    -284.393
  O      141.130     787.554    -285.861
  H      136.729     789.162    -279.455
  H      141.883     786.977    -286.100
  H      132.556     791.865    -283.083
  H      138.058     788.973    -284.786
  H      136.948     791.362    -282.043
  H      136.314     788.641    -281.519
  H      138.448     787.883    -282.372
  H      139.691     790.260    -280.889
  H      141.361     790.154    -282.725
  H      132.630     790.643    -287.388
  H      134.234     790.041    -287.743
  H      141.360     788.670    -281.742
  P      138.434     786.328    -280.135
  C      140.073     785.020    -281.608
  O      139.734     785.403    -280.294
  O      137.249     785.908    -280.936
  O      138.141     786.253    -278.561
  H      137.416     785.620    -278.401
  H      139.421     784.206    -281.944
  H      141.108     784.666    -281.622
  H      139.985     785.869    -282.300
  H      141.886     791.959    -285.949
  H      143.199     790.829    -285.719
  H      142.273     791.383    -284.345

 3  4  5  6  7  8  9  10  11  12  22  25  29  30  31  32 0
 6-311+G(2d,p)
 ****
 33  36  37 0
 6-311+G(2d,p)
 ****
 1  2  13  14  15  16  17  18  19  20  21  23  24  26 0
 3-21G
 ****
 27  28  34  35  38  39  40  41  42  43  44  45  46  47  48 0
 3-21G
 ****


