%nproc=1
%NoSave
%Mem=1900MB
#P OB98/GEN NMR

erre ene a

0 1
  C      -56.027     -81.288    -346.269
  O      -55.435     -81.614    -345.018
  P      -54.100     -80.822    -344.598
  C      -53.178     -83.220    -344.230
  O      -52.913     -81.899    -344.683
  C      -52.611     -84.248    -345.208
  O      -53.188     -84.058    -346.516
  C      -51.104     -84.167    -345.408
  O      -50.390     -84.830    -344.379
  C      -50.946     -84.905    -346.724
  O      -50.999     -86.325    -346.497
  C      -52.191     -84.451    -347.500
  N      -50.259     -83.111    -352.039
  C      -50.306     -84.295    -351.398
  N      -50.830     -84.574    -350.181
  C      -51.307     -83.454    -349.604
  C      -51.294     -82.169    -350.127
  C      -50.749     -82.012    -351.411
  N      -50.726     -80.807    -352.080
  N      -51.870     -81.283    -349.242
  C      -52.236     -82.019    -348.215
  N      -51.925     -83.339    -348.391
  O      -54.289     -80.604    -343.023
  O      -53.877     -79.537    -345.320
  H      -50.204     -86.562    -345.980
  H      -53.755     -79.845    -342.724
  H      -49.876     -85.139    -351.930
  H      -52.732     -81.640    -347.330
  H      -52.628     -85.258    -348.097
  H      -49.994     -84.695    -347.222
  H      -50.776     -83.124    -345.531
  H      -52.898     -85.247    -344.854
  H      -54.262     -83.364    -344.151
  H      -50.492     -80.813    -353.057
  H      -51.267     -80.041    -351.692
  H      -52.733     -83.354    -343.237
  P      -49.530     -83.906    -343.383
  C      -47.453     -85.438    -343.709
  O      -48.001     -84.137    -343.810
  O      -49.657     -84.668    -341.982
  O      -49.990     -82.491    -343.310
  H      -49.540     -84.043    -341.243
  H      -46.543     -85.482    -344.314
  H      -48.153     -86.193    -344.076
  H      -47.192     -85.649    -342.666
  H      -56.901     -81.887    -346.417
  H      -55.327     -81.478    -347.055
  H      -56.299     -80.253    -346.276

 3  4  5  6  7  8  9  10  11  12  22  25  29  30  31  32 0
 6-311+G(2d,p)
 ****
 33  36  37 0
 6-311+G(2d,p)
 ****
 1  2  13  14  15  16  17  18  19  20  21  23  24  26 0
 3-21G
 ****
 27  28  34  35  38  39  40  41  42  43  44  45  46  47  48 0
 3-21G
 ****


