%nproc=1
%NoSave
%Mem=1900MB
#P OB98/GEN NMR

erre ene a

0 1
  C      -52.552     314.138     615.785
  O      -52.346     314.511     614.440
  P      -52.720     315.988     613.947
  C      -55.243     315.563     613.742
  O      -54.043     315.873     613.051
  C      -56.461     316.026     612.938
  O      -56.555     317.466     612.961
  C      -56.411     315.640     611.465
  O      -56.731     314.273     611.286
  C      -57.422     316.616     610.873
  O      -58.764     316.125     611.052
  C      -57.191     317.867     611.723
  N      -57.264     321.747     608.408
  C      -58.201     320.845     608.759
  N      -58.095     319.812     609.628
  C      -56.848     319.745     610.134
  C      -55.780     320.577     609.850
  C      -56.028     321.643     608.955
  N      -55.094     322.602     608.634
  N      -54.654     320.175     610.540
  C      -55.036     319.119     611.233
  N      -56.372     318.863     611.061
  O      -51.594     316.761     613.340
  O      -53.248     316.702     615.279
  H      -58.914     315.438     610.382
  H      -52.681     317.478     615.474
  H      -59.179     320.970     608.290
  H      -54.401     318.519     611.865
  H      -58.140     318.354     612.002
  H      -57.275     316.774     609.803
  H      -55.416     315.866     611.055
  H      -57.364     315.623     613.415
  H      -55.233     316.066     614.716
  H      -55.406     323.396     608.102
  H      -54.288     322.711     609.249
  H      -55.300     314.480     613.914
  P      -55.626     313.267     610.709
  C      -56.008     314.194     608.342
  O      -55.979     313.038     609.163
  O      -55.396     312.023     611.500
  O      -54.297     314.162     610.640
  H      -53.516     313.596     610.785
  H      -56.946     314.731     608.503
  H      -55.953     313.883     607.300
  H      -55.163     314.844     608.561
  H      -52.246     313.122     615.924
  H      -53.590     314.234     616.027
  H      -51.977     314.775     616.424

 3  4  5  6  7  8  9  10  11  12  22  25  29  30  31  32 0
 6-311+G(2d,p)
 ****
 33  36  37 0
 6-311+G(2d,p)
 ****
 1  2  13  14  15  16  17  18  19  20  21  23  24  26 0
 3-21G
 ****
 27  28  34  35  38  39  40  41  42  43  44  45  46  47  48 0
 3-21G
 ****


