%nproc=1
%NoSave
%Mem=1900MB
#P OB98/GEN NMR

erre ene a

0 1
  C       76.980     233.902      80.524
  O       75.663     234.184      80.093
  H       77.236     234.589      81.334
  H       77.690     234.044      79.705
  H       77.046     232.877      80.902
  P       75.061     233.334      78.876
  C       76.066     232.753      76.569
  O       75.915     233.741      77.580
  C       77.520     232.682      76.110
  O       78.384     232.396      77.227
  C       77.796     231.604      75.064
  O       77.434     232.057      73.770
  C       79.297     231.439      75.225
  O       79.977     232.537      74.584
  C       79.464     231.543      76.753
  N       81.780     227.115      77.648
  C       82.096     228.113      76.747
  N       83.163     227.887      75.951
  N       81.418     229.226      76.628
  C       80.340     229.286      77.440
  C       79.914     228.356      78.360
  C       80.707     227.156      78.529
  O       80.476     226.259      79.333
  N       78.721     228.722      78.930
  C       78.455     229.898      78.394
  N       79.402     230.282      77.474
  O       73.578     233.428      78.679
  O       75.533     231.834      79.169
  H       80.922     232.460      74.810
  H       74.862     231.347      79.682
  H       82.332     226.275      77.689
  H       77.596     230.513      78.638
  H       80.408     232.021      77.032
  H       79.675     230.519      74.775
  H       83.628     226.992      75.891
  H       77.306     230.658      75.321
  H       83.373     228.581      75.243
  H       77.802     233.675      75.733
  H       75.416     233.035      75.735
  H       75.749     231.773      76.941
  P       77.093     231.027      72.584
  C       78.580     229.922      70.779
  O       78.514     230.476      72.080
  O       76.222     231.576      71.509
  O       76.488     229.752      73.330
  H       75.519     229.832      73.508
  H       79.580     229.598      70.579
  H       78.295     230.662      70.061
  H       77.915     229.086      70.713

 6  7  8  9  10  11  12  13  14  15  26  29  33  34 0
 6-311+G(2d,p)
 ****
 36  38  39  40  41 0
 6-311+G(2d,p)
 ****
 1  2  3  4  5  16  17  18  19  20  21  22  23  24  25 0
 3-21G
 ****
 27  28  30  31  32  35  37  42  43  44  45  46  47 0
 3-21G
 ****
 48  49 0
 3-21G
 ****


