%nproc=1
%NoSave
%Mem=1900MB
#P OB98/GEN NMR

erre ene a

0 1
  C       33.287     -16.856     259.700
  O       34.640     -16.479     259.508
  P       35.792     -17.432     260.093
  C       36.313     -15.935     262.189
  O       35.843     -17.166     261.673
  C       37.240     -16.177     263.385
  O       36.453     -16.699     264.491
  C       38.374     -17.176     263.118
  O       39.516     -16.729     263.862
  C       37.829     -18.469     263.703
  O       38.851     -19.397     264.018
  C       37.064     -17.932     264.917
  N       36.050     -18.860     265.423
  C       36.340     -19.565     266.586
  O       37.402     -19.472     267.200
  N       35.360     -20.426     267.019
  C       34.182     -20.688     266.380
  O       33.349     -21.483     266.805
  C       33.954     -19.948     265.133
  C       34.878     -19.076     264.725
  O       37.103     -16.710     259.532
  O       35.643     -18.862     259.700
  H       37.025     -15.741     259.508
  H       39.326     -19.070     264.805
  H       35.532     -20.921     267.880
  H       33.037     -20.144     264.589
  H       34.733     -18.519     263.805
  H       37.767     -17.680     265.720
  H       37.156     -18.937     262.978
  H       38.628     -17.248     262.057
  H       37.647     -15.208     263.704
  H       35.461     -15.328     262.512
  H       36.834     -15.387     261.396
  P       40.963     -16.817     263.160
  C       42.001     -18.279     265.068
  O       41.675     -18.144     263.703
  O       41.734     -15.650     263.950
  O       40.959     -16.610     261.681
  H       41.615     -15.706     264.913
  H       42.155     -19.337     265.291
  H       41.197     -17.905     265.708
  H       42.925     -17.736     265.285
  H       32.646     -16.123     259.256
  H       33.080     -16.922     260.748
  H       33.113     -17.807     259.242

 3  4  5  6  7  8  9  10  11  12  13  24  28  29  30  31  32 0
 6-311+G(2d,p)
 ****
 33  34 0
 6-311+G(2d,p)
 ****
 1  2  14  15  16  17  18  19  20  21  22  23  25  26  27 0
 3-21G
 ****
 35  36  37  38  39  40  41  42  43  44  45 0
 3-21G
 ****


