%nproc=1
%NoSave
%Mem=1900MB
#P OB98/GEN NMR

erre ene a

0 1
  C      389.385     102.011     516.828
  O      388.159     102.685     516.582
  P      387.397     102.561     515.182
  C      384.984     102.946     515.991
  O      386.103     103.505     515.307
  C      383.669     103.296     515.293
  O      383.447     104.734     515.366
  C      383.606     102.893     513.809
  O      382.242     102.539     513.544
  C      383.965     104.186     513.098
  O      383.558     104.206     511.737
  C      383.272     105.216     514.010
  N      383.816     106.560     513.829
  C      383.704     107.113     512.543
  O      383.237     106.445     511.619
  N      384.168     108.390     512.334
  C      384.782     109.012     513.288
  N      385.226     110.276     513.017
  C      385.036     108.414     514.609
  C      384.519     107.201     514.815
  O      387.123     101.172     514.721
  O      388.324     103.399     514.172
  H      383.868     105.045     511.332
  H      389.125     102.866     513.917
  H      385.605     108.952     515.358
  H      384.649     106.686     515.757
  H      382.194     105.244     513.811
  H      385.055     104.329     513.126
  H      384.277     102.069     513.549
  H      382.853     102.815     515.845
  H      385.015     110.653     512.099
  H      384.967     103.367     517.006
  H      385.642     110.872     513.706
  H      385.099     101.860     516.080
  P      381.786     101.008     513.421
  C      379.518     101.304     514.577
  O      380.186     101.001     513.361
  O      382.386     100.086     514.433
  O      382.211     100.590     511.925
  H      382.204      99.615     511.852
  H      378.474     101.537     514.353
  H      379.979     102.161     515.069
  H      379.555     100.435     515.239
  H      389.719     102.230     517.821
  H      390.120     102.339     516.123
  H      389.239     100.956     516.726

 3  4  5  6  7  8  9  10  11  12  13  23  27  28  29  30  32 0
 6-311+G(2d,p)
 ****
 34  35 0
 6-311+G(2d,p)
 ****
 1  2  14  15  16  17  18  19  20  21  22  24  25  26 0
 3-21G
 ****
 31  33  36  37  38  39  40  41  42  43  44  45  46 0
 3-21G
 ****


