%nproc=1
%NoSave
%Mem=1900MB
#P OB98/GEN NMR

erre ene a

0 1
  C       84.496     -87.296      42.928
  O       84.701     -85.901      42.738
  P       84.386     -84.862      43.919
  C       86.450     -83.377      44.323
  O       85.230     -83.532      43.599
  C       86.600     -81.938      44.818
  O       86.828     -81.071      43.675
  C       85.370     -81.415      45.557
  O       85.797     -80.555      46.617
  C       84.644     -80.569      44.525
  O       83.841     -79.553      45.152
  C       85.814     -80.042      43.687
  N       83.124     -76.944      40.587
  C       83.311     -76.933      41.925
  N       84.019     -77.796      42.682
  C       84.608     -78.731      41.917
  C       84.514     -78.870      40.537
  C       83.723     -77.921      39.860
  N       83.539     -77.928      38.497
  N       85.236     -79.965      40.104
  C       85.774     -80.465      41.196
  N       85.435     -79.747      42.315
  O       84.575     -85.398      45.302
  O       82.877     -84.404      43.659
  H       83.385     -79.065      44.438
  H       82.403     -84.297      44.509
  H       82.829     -76.111      42.460
  H       86.404     -81.345      41.236
  H       86.253     -79.134      44.127
  H       83.979     -81.205      43.927
  H       84.739     -82.221      45.958
  H       87.496     -81.878      45.458
  H       87.280     -83.620      43.652
  H       83.055     -77.141      38.086
  H       84.119     -78.546      37.940
  H       86.468     -84.084      45.165
  P       85.604     -81.130      48.114
  C       87.815     -80.162      49.089
  O       86.409     -80.105      49.052
  O       85.971     -82.579      48.209
  O       84.054     -80.807      48.374
  H       83.742     -80.054      47.815
  H       88.179     -79.416      49.811
  H       88.230     -79.919      48.106
  H       88.154     -81.159      49.402
  H       84.760     -87.820      42.034
  H       83.467     -87.477      43.157
  H       85.107     -87.639      43.737

 3  4  5  6  7  8  9  10  11  12  22  25  29  30  31  32 0
 6-311+G(2d,p)
 ****
 33  36  37 0
 6-311+G(2d,p)
 ****
 1  2  13  14  15  16  17  18  19  20  21  23  24  26 0
 3-21G
 ****
 27  28  34  35  38  39  40  41  42  43  44  45  46  47  48 0
 3-21G
 ****


