%nproc=1
%NoSave
%Mem=1900MB
#P OB98/GEN NMR

erre ene a

0 1
  C      324.933    -892.460      33.516
  O      325.345    -893.060      32.299
  P      326.856    -892.820      31.810
  C      326.928    -895.160      30.601
  O      327.063    -893.750      30.516
  C      327.400    -895.810      29.297
  O      328.783    -895.480      29.045
  C      327.327    -897.340      29.281
  O      325.987    -897.790      29.089
  C      328.267    -897.650      28.148
  O      327.609    -897.500      26.872
  C      329.366    -896.590      28.317
  N      330.568    -897.100      28.995
  C      331.312    -898.050      28.304
  O      330.988    -898.470      27.187
  N      332.408    -898.540      28.946
  C      332.814    -898.200      30.207
  O      333.799    -898.690      30.760
  C      331.976    -897.210      30.903
  C      330.918    -896.710      30.270
  O      327.665    -893.560      32.983
  O      327.197    -891.380      31.644
  H      327.143    -894.290      33.384
  H      327.358    -896.560      26.784
  H      332.972    -899.220      28.456
  H      332.269    -896.920      31.910
  H      330.276    -895.970      30.760
  H      329.656    -896.180      27.335
  H      328.646    -898.700      28.187
  H      327.711    -897.740      30.216
  H      326.791    -895.390      28.469
  H      325.882    -895.420      30.784
  H      327.533    -895.520      31.440
  P      325.362    -898.660      30.293
  C      323.065    -897.480      29.810
  O      323.770    -898.690      30.051
  O      325.571    -897.690      31.554
  O      325.997    -900.000      30.466
  H      325.366    -896.750      31.333
  H      322.120    -897.720      29.337
  H      323.646    -896.810      29.157
  H      322.881    -896.960      30.780
  H      323.910    -892.708      33.708
  H      325.034    -891.397      33.442
  H      325.544    -892.822      34.317

 3  4  5  6  7  8  9  10  11  12  13  24  28  29  30  31  32 0
 6-311+G(2d,p)
 ****
 33  34 0
 6-311+G(2d,p)
 ****
 1  2  14  15  16  17  18  19  20  21  22  23  25  26  27 0
 3-21G
 ****
 35  36  37  38  39  40  41  42  43  44  45 0
 3-21G
 ****


