%nproc=1
%NoSave
%Mem=1900MB
#P OB98/GEN NMR

erre ene a

0 1
  C       -6.552     -55.363    -337.069
  O       -6.322     -55.606    -335.693
  P       -6.198     -57.125    -335.198
  C       -8.251     -56.949    -333.617
  O       -7.654     -57.612    -334.723
  C       -8.061     -57.759    -332.332
  O       -8.282     -56.900    -331.180
  C       -9.027     -58.944    -332.208
  O       -8.367     -60.021    -331.520
  C      -10.111     -58.418    -331.288
  O      -10.800     -59.480    -330.628
  C       -9.294     -57.521    -330.361
  N      -11.648     -56.289    -326.060
  C      -10.689     -57.256    -326.290
  N      -10.383     -58.059    -325.248
  N      -10.083     -57.418    -327.435
  C      -10.496     -56.547    -328.389
  C      -11.426     -55.535    -328.279
  C      -12.100     -55.378    -327.005
  O      -12.977     -54.558    -326.747
  N      -11.556     -54.841    -329.451
  C      -10.736     -55.450    -330.288
  N      -10.100     -56.515    -329.701
  O       -5.382     -56.988    -333.824
  O       -5.497     -58.033    -336.153
  H      -11.332     -59.075    -329.916
  H       -4.460     -57.285    -333.960
  H      -12.096     -56.211    -325.163
  H      -10.586     -55.181    -331.325
  H       -8.782     -58.103    -329.585
  H      -10.844     -57.844    -331.865
  H      -10.864     -58.029    -324.358
  H       -9.423     -59.311    -333.161
  H       -9.714     -58.803    -325.400
  H       -7.021     -58.098    -332.282
  H       -9.316     -56.827    -333.808
  H       -7.806     -55.954    -333.503
  P       -9.064     -61.463    -331.644
  C      -10.118     -61.250    -329.275
  O      -10.325     -61.427    -330.662
  O       -8.032     -62.435    -330.902
  O       -9.339     -61.891    -333.048
  H       -8.116     -63.347    -331.240
  H      -10.586     -60.310    -328.964
  H       -9.058     -61.225    -329.011
  H      -10.593     -62.075    -328.734
  H       -6.610     -54.308    -337.240
  H       -7.472     -55.823    -337.364
  H       -5.748     -55.774    -337.643

 3  4  5  6  7  8  9  10  11  12  23  26  30  31 0
 6-311+G(2d,p)
 ****
 33  35  36  37  38 0
 6-311+G(2d,p)
 ****
 1  2  13  14  15  16  17  18  19  20  21  22  24  25 0
 3-21G
 ****
 27  28  29  32  34  39  40  41  42  43  44  45  46  47  48  49 0
 3-21G
 ****


