%nproc=1
%NoSave
%Mem=1900MB
#P OB98/GEN NMR

erre ene a

0 1
  C      420.171    -721.143    -734.659
  O      418.838    -721.044    -734.153
  P      417.642    -720.699    -735.175
  C      416.244    -722.735    -734.403
  O      416.280    -721.323    -734.594
  C      415.021    -723.139    -733.563
  O      415.268    -722.908    -732.146
  C      413.764    -722.347    -733.940
  O      412.590    -723.162    -733.775
  C      413.716    -721.261    -732.870
  O      412.402    -720.712    -732.725
  C      414.229    -722.050    -731.657
  N      413.140    -719.687    -727.223
  C      412.425    -720.545    -727.987
  N      412.787    -721.152    -729.148
  C      414.035    -720.802    -729.495
  C      414.885    -719.941    -728.811
  C      414.390    -719.360    -727.626
  N      415.097    -718.469    -726.863
  N      416.099    -719.817    -729.464
  C      415.951    -720.553    -730.562
  N      414.746    -721.184    -730.605
  O      417.921    -721.011    -736.610
  O      417.436    -719.126    -734.937
  H      412.135    -720.403    -733.606
  H      417.290    -718.700    -735.818
  H      411.424    -720.766    -727.633
  H      416.702    -720.646    -731.345
  H      413.440    -722.674    -731.219
  H      414.410    -720.451    -733.137
  H      413.775    -721.930    -734.954
  H      414.856    -724.227    -733.688
  H      417.160    -723.058    -733.889
  H      414.638    -718.010    -726.099
  H      415.982    -718.099    -727.227
  H      416.242    -723.233    -735.379
  P      411.443    -722.970    -734.901
  C      410.206    -725.231    -734.407
  O      410.197    -723.823    -734.374
  O      411.924    -723.276    -736.291
  O      411.014    -721.438    -734.694
  H      410.813    -721.196    -733.759
  H      409.322    -725.625    -733.892
  H      411.094    -725.620    -733.899
  H      410.200    -725.595    -735.443
  H      420.840    -721.376    -733.857
  H      420.455    -720.211    -735.101
  H      420.216    -721.916    -735.397

 3  4  5  6  7  8  9  10  11  12  22  25  29  30  31  32 0
 6-311+G(2d,p)
 ****
 33  36  37 0
 6-311+G(2d,p)
 ****
 1  2  13  14  15  16  17  18  19  20  21  23  24  26 0
 3-21G
 ****
 27  28  34  35  38  39  40  41  42  43  44  45  46  47  48 0
 3-21G
 ****


