%nproc=1
%NoSave
%Mem=1900MB
#P OB98/GEN NMR

erre ene a

0 1
  C      -41.507      -7.730     -26.934
  O      -42.326      -6.771     -26.288
  P      -41.893      -5.227     -26.348
  C      -40.605      -5.287     -24.058
  O      -40.563      -5.092     -25.460
  C      -39.362      -4.678     -23.400
  O      -38.178      -5.336     -23.931
  C      -39.192      -3.171     -23.632
  O      -38.612      -2.620     -22.442
  C      -38.202      -3.117     -24.783
  O      -37.520      -1.875     -24.861
  C      -37.302      -4.311     -24.442
  N      -36.540      -4.810     -25.587
  C      -35.173      -4.552     -25.620
  O      -34.574      -3.914     -24.756
  N      -34.502      -5.039     -26.715
  C      -35.061      -5.680     -27.782
  O      -34.415      -6.077     -28.745
  C      -36.515      -5.880     -27.715
  C      -37.174      -5.453     -26.635
  O      -43.032      -4.551     -25.452
  O      -41.777      -4.690     -27.735
  H      -43.312      -5.111     -24.707
  H      -38.186      -1.165     -24.904
  H      -33.503      -4.896     -26.742
  H      -36.998      -6.372     -28.551
  H      -38.247      -5.588     -26.562
  H      -36.615      -4.042     -23.632
  H      -38.734      -3.273     -25.729
  H      -40.140      -2.671     -23.850
  H      -39.400      -4.898     -22.325
  H      -40.635      -6.358     -23.840
  H      -41.519      -4.835     -23.657
  P      -38.950      -1.090     -22.070
  C      -36.544      -0.248     -22.672
  O      -37.934      -0.164     -22.892
  O      -38.362      -1.026     -20.577
  O      -40.397      -0.730     -22.139
  H      -37.466      -1.393     -20.508
  H      -36.024       0.190     -23.529
  H      -36.219      -1.285     -22.561
  H      -36.279       0.318     -21.773
  H      -41.928      -8.705     -26.803
  H      -40.526      -7.706     -26.508
  H      -41.449      -7.504     -27.978

 3  4  5  6  7  8  9  10  11  12  13  24  28  29  30  31  32 0
 6-311+G(2d,p)
 ****
 33  34 0
 6-311+G(2d,p)
 ****
 1  2  14  15  16  17  18  19  20  21  22  23  25  26  27 0
 3-21G
 ****
 35  36  37  38  39  40  41  42  43  44  45 0
 3-21G
 ****


