%nproc=1
%NoSave
%Mem=1900MB
#P OB98/GEN NMR

erre ene a

0 1
  C     -324.030    -366.078       1.238
  O     -325.368    -365.886       1.711
  P     -326.624    -366.139       0.737
  C     -326.647    -363.849      -0.389
  O     -327.361    -364.735       0.461
  C     -327.176    -362.406      -0.341
  O     -328.526    -362.333      -0.864
  C     -327.196    -361.765       1.046
  O     -326.930    -360.375       0.854
  C     -328.636    -361.994       1.482
  O     -329.021    -361.132       2.556
  C     -329.378    -361.780       0.162
  N     -330.701    -362.392       0.167
  C     -331.744    -361.664       0.737
  O     -331.522    -360.576       1.267
  N     -333.000    -362.214       0.742
  C     -333.191    -363.410       0.309
  N     -334.460    -363.905       0.357
  C     -332.095    -364.259      -0.234
  C     -330.895    -363.686      -0.286
  O     -327.537    -367.243       1.171
  O     -325.943    -366.487      -0.674
  H     -329.946    -361.336       2.792
  H     -326.533    -367.091      -1.168
  H     -332.298    -365.269      -0.572
  H     -330.037    -364.214      -0.669
  H     -329.497    -360.712      -0.047
  H     -328.754    -363.030       1.824
  H     -326.469    -362.209       1.735
  H     -326.547    -361.800      -1.020
  H     -335.172    -363.307       0.763
  H     -326.713    -364.219      -1.421
  H     -334.697    -364.866       0.147
  H     -325.586    -363.856      -0.122
  P     -325.572    -359.684       1.334
  C     -326.345    -358.650       3.545
  O     -325.981    -358.408       2.201
  O     -324.581    -359.414       0.248
  O     -324.969    -360.696       2.430
  H     -324.027    -360.503       2.566
  H     -326.395    -357.695       4.085
  H     -325.614    -359.294       4.036
  H     -327.332    -359.130       3.577
  H     -323.339    -365.862       2.026
  H     -323.846    -365.423       0.412
  H     -323.905    -367.093       0.923

 3  4  5  6  7  8  9  10  11  12  13  23  27  28  29  30  32 0
 6-311+G(2d,p)
 ****
 34  35 0
 6-311+G(2d,p)
 ****
 1  2  14  15  16  17  18  19  20  21  22  24  25  26 0
 3-21G
 ****
 31  33  36  37  38  39  40  41  42  43  44  45  46 0
 3-21G
 ****


