%nproc=1
%NoSave
%Mem=1900MB
#P OB98/GEN NMR

erre ene a

0 1
  C      158.251      71.905      42.781
  O      159.115      70.822      43.060
  H      157.416      71.542      42.176
  H      158.790      72.668      42.213
  H      157.856      72.336      43.705
  P      160.222      71.053      44.200
  C      160.140      71.958      46.632
  O      159.509      71.903      45.361
  C      159.737      73.231      47.368
  O      160.192      74.396      46.646
  C      158.232      73.402      47.553
  O      157.760      72.684      48.686
  C      158.145      74.901      47.782
  O      158.553      75.211      49.133
  C      159.184      75.437      46.787
  N      156.434      78.740      44.095
  C      156.709      78.712      45.449
  N      156.166      79.701      46.192
  N      157.444      77.796      46.025
  C      157.899      76.857      45.162
  C      157.690      76.774      43.804
  C      156.889      77.802      43.178
  O      156.625      77.878      41.980
  N      158.311      75.679      43.264
  C      158.877      75.089      44.297
  N      158.654      75.762      45.473
  O      161.219      72.105      43.515
  O      160.946      69.827      44.641
  H      159.451      74.851      49.249
  H      162.015      71.630      43.208
  H      155.854      79.462      43.705
  H      159.462      74.181      44.248
  H      159.689      76.335      47.158
  H      157.131      75.288      47.661
  H      155.573      80.424      45.817
  H      157.679      73.136      46.644
  H      156.357      79.701      47.187
  H      160.247      73.232      48.341
  H      161.226      71.946      46.491
  H      159.843      71.079      47.215
  P      156.242      72.165      48.677
  C      155.065      70.177      47.499
  O      156.105      71.144      47.444
  O      155.434      73.455      48.186
  O      155.732      71.669      49.985
  H      154.886      73.803      48.917
  H      155.095      69.571      46.618
  H      154.119      70.674      47.559
  H      155.198      69.559      48.362

 6  7  8  9  10  11  12  13  14  15  26  29  33  34 0
 6-311+G(2d,p)
 ****
 36  38  39  40  41 0
 6-311+G(2d,p)
 ****
 1  2  3  4  5  16  17  18  19  20  21  22  23  24  25 0
 3-21G
 ****
 27  28  30  31  32  35  37  42  43  44  45  46  47 0
 3-21G
 ****
 48  49 0
 3-21G
 ****


