%nproc=1
%NoSave
%Mem=1900MB
#P OB98/GEN NMR

erre ene a

0 1
  C      373.815    -451.426    1271.961
  O      373.690    -452.644    1272.658
  P      375.006    -453.484    1273.042
  C      377.072    -454.353    1271.783
  O      375.711    -453.949    1271.682
  C      377.578    -454.883    1270.437
  O      377.510    -453.847    1269.427
  C      379.023    -455.357    1270.466
  O      379.141    -456.616    1271.094
  C      379.372    -455.339    1268.972
  O      378.880    -456.547    1268.337
  C      378.561    -454.125    1268.476
  N      381.999    -451.854    1265.458
  C      381.471    -453.114    1265.468
  N      380.591    -453.640    1266.308
  C      380.270    -452.768    1267.274
  C      380.751    -451.483    1267.435
  C      381.641    -451.006    1266.458
  N      382.131    -449.729    1266.414
  N      380.226    -450.901    1268.573
  C      379.439    -451.812    1269.099
  N      379.387    -452.948    1268.302
  O      374.803    -454.563    1274.047
  O      376.011    -452.362    1273.609
  H      379.266    -457.294    1268.820
  H      376.237    -452.578    1274.545
  H      381.799    -453.758    1264.633
  H      378.871    -451.719    1270.007
  H      378.069    -454.321    1267.512
  H      380.439    -455.277    1268.770
  H      379.653    -454.614    1270.968
  H      376.907    -455.699    1270.121
  H      377.134    -455.139    1272.544
  H      382.657    -449.446    1265.585
  H      381.664    -448.999    1266.957
  H      377.681    -453.507    1272.125
  P      380.514    -457.034    1271.794
  C      382.974    -456.839    1271.005
  O      381.631    -457.128    1270.645
  O      380.441    -458.214    1272.716
  O      380.952    -455.707    1272.584
  H      381.445    -455.944    1273.391
  H      383.088    -455.759    1271.082
  H      383.630    -457.220    1270.257
  H      383.189    -457.306    1271.989
  H      372.844    -451.010    1271.793
  H      374.296    -451.601    1271.021
  H      374.401    -450.742    1272.540

 3  4  5  6  7  8  9  10  11  12  22  25  29  30  31  32 0
 6-311+G(2d,p)
 ****
 33  36  37 0
 6-311+G(2d,p)
 ****
 1  2  13  14  15  16  17  18  19  20  21  23  24  26 0
 3-21G
 ****
 27  28  34  35  38  39  40  41  42  43  44  45  46  47  48 0
 3-21G
 ****


