%nproc=1
%NoSave
%Mem=1900MB
#P OB98/GEN NMR

erre ene a

0 1
  C       80.126     136.013    -484.955
  O       79.415     136.504    -486.096
  P       80.126     137.631    -486.973
  C       78.732     136.748    -488.973
  O       79.154     137.892    -488.228
  C       77.266     136.874    -489.360
  O       77.070     138.071    -490.122
  C       76.733     135.737    -490.226
  O       76.398     134.594    -489.452
  C       75.483     136.380    -490.814
  O       74.398     136.288    -489.877
  C       75.930     137.852    -491.003
  N       74.384     139.671    -495.467
  C       73.678     139.503    -494.297
  N       72.388     139.913    -494.294
  N       74.194     138.996    -493.212
  C       75.495     138.668    -493.333
  C       76.316     138.772    -494.454
  C       75.715     139.301    -495.667
  O       76.266     139.420    -496.751
  N       77.591     138.354    -494.203
  C       77.574     138.033    -492.925
  N       76.316     138.173    -492.363
  O       81.386     136.868    -487.620
  O       80.556     138.857    -486.219
  H       74.726     136.603    -489.019
  H       82.084     137.508    -487.834
  H       73.934     140.088    -496.271
  H       78.437     137.689    -492.361
  H       75.139     138.542    -490.685
  H       75.149     135.887    -491.742
  H       71.975     140.432    -495.064
  H       77.432     135.496    -491.029
  H       71.872     139.832    -493.430
  H       76.676     136.962    -488.431
  H       78.867     135.844    -488.361
  H       79.369     136.651    -489.869
  P       76.465     133.175    -490.216
  C       76.967     131.885    -488.010
  O       76.082     132.088    -489.096
  O       78.021     132.963    -490.469
  O       75.678     133.119    -491.489
  H       78.167     132.379    -491.232
  H       77.436     132.822    -487.697
  H       77.747     131.177    -488.302
  H       76.408     131.468    -487.171
  H       79.538     135.267    -484.462
  H       80.317     136.820    -484.279
  H       81.054     135.584    -485.270

 3  4  5  6  7  8  9  10  11  12  23  26  30  31  33  0
 6-311+G(2d,p)
 ****
 35  36  37  38 0
 6-311+G(2d,p)
 ****
 1  2  13  14  15  16  17  18  19  20  21  22  24  25  27  28  29 0
 3-21G
 ****
 32  34  39  40  41  42  43  44  45  46  47  48  49 0
 3-21G
 ****


