%nproc=1
%NoSave
%Mem=1900MB
#P OB98/GEN NMR

erre ene a

0 1
  C     -730.857    -985.932    2637.692
  O     -729.658    -985.378    2638.232
  H     -730.866    -985.764    2636.617
  H     -731.719    -985.432    2638.134
  H     -730.911    -987.010    2637.898
  P     -729.406    -985.596    2639.807
  C     -726.880    -986.116    2640.113
  O     -728.186    -986.632    2639.918
  C     -725.970    -986.454    2638.939
  O     -726.491    -985.806    2637.728
  C     -724.506    -986.009    2639.099
  O     -723.663    -987.010    2638.481
  C     -724.439    -984.740    2638.278
  O     -723.107    -984.409    2637.873
  C     -725.365    -985.105    2637.116
  N     -724.022    -981.871    2633.518
  C     -723.379    -982.971    2634.009
  N     -722.182    -983.273    2633.455
  N     -723.846    -983.754    2634.961
  C     -725.083    -983.348    2635.391
  C     -725.832    -982.291    2635.003
  C     -725.248    -981.394    2633.966
  O     -725.787    -980.407    2633.497
  N     -726.981    -982.186    2635.691
  C     -726.969    -983.224    2636.519
  N     -725.807    -983.942    2636.385
  O     -730.691    -986.459    2640.248
  O     -729.262    -984.352    2640.598
  H     -722.524    -984.494    2638.638
  H     -731.391    -985.873    2640.579
  H     -723.619    -981.307    2632.783
  H     -727.728    -983.475    2637.236
  H     -724.889    -985.792    2636.402
  H     -724.824    -983.888    2638.863
  H     -721.767    -982.779    2632.702
  H     -724.180    -985.876    2640.135
  H     -721.717    -984.115    2633.772
  H     -726.034    -987.556    2638.760
  H     -726.450    -986.542    2641.035
  H     -726.932    -985.003    2640.239
  P     -722.552    -987.717    2639.380
  C     -722.698    -990.289    2638.833
  O     -723.040    -989.212    2639.719
  O     -722.701    -986.985    2640.788
  O     -721.171    -987.620    2638.818
  H     -721.823    -986.967    2641.266
  H     -723.102    -991.205    2639.212
  H     -721.633    -990.370    2638.765
  H     -723.104    -990.095    2637.862

 6  7  8  9  10  11  12  13  14  15  26  29  33  34 0
 6-311+G(2d,p)
 ****
 36  38  39  40  41 0
 6-311+G(2d,p)
 ****
 1  2  3  4  5  16  17  18  19  20  21  22  23  24  25 0
 3-21G
 ****
 27  28  30  31  32  35  37  42  43  44  45  46  47 0
 3-21G
 ****
 48  49 0
 3-21G
 ****


