%nproc=1
%NoSave
%Mem=1900MB
#P OB98/GEN NMR

erre ene a

0 1
  C     -135.758    -354.391     188.978
  O     -135.772    -355.206     190.152
  P     -136.956    -356.287     190.273
  C     -137.383    -358.666     189.285
  O     -136.438    -357.644     189.590
  C     -136.682    -359.954     188.869
  O     -135.869    -359.744     187.693
  C     -135.722    -360.514     189.913
  O     -136.413    -361.224     190.934
  C     -134.882    -361.458     189.070
  O     -135.565    -362.714     188.910
  C     -134.799    -360.714     187.720
  N     -129.993    -361.125     186.141
  C     -130.995    -362.080     186.188
  N     -130.676    -363.310     185.719
  N     -132.199    -361.846     186.648
  C     -132.381    -360.564     187.054
  C     -131.469    -359.528     187.059
  C     -130.129    -359.809     186.572
  O     -129.199    -359.015     186.536
  N     -132.025    -358.368     187.535
  C     -133.286    -358.693     187.793
  N     -133.543    -360.016     187.528
  O     -138.044    -355.744     189.227
  O     -137.522    -356.418     191.644
  H     -136.235    -362.591     188.198
  H     -138.934    -356.035     189.493
  H     -129.083    -361.365     185.781
  H     -134.035    -358.009     188.165
  H     -134.944    -361.396     186.876
  H     -133.910    -361.685     189.524
  H     -129.792    -363.534     185.287
  H     -135.082    -359.719     190.326
  H     -131.415    -364.006     185.717
  H     -137.452    -360.704     188.629
  H     -138.039    -358.326     188.479
  H     -138.023    -358.829     190.162
  P     -136.797    -360.411     192.267
  C     -138.945    -359.136     192.980
  O     -138.157    -359.632     191.916
  O     -135.689    -359.257     192.318
  O     -136.812    -361.239     193.511
  H     -135.523    -358.993     193.245
  H     -138.326    -358.662     193.748
  H     -139.520    -359.959     193.423
  H     -139.639    -358.390     192.583
  H     -134.926    -353.719     189.020
  H     -136.668    -353.830     188.922
  H     -135.670    -355.014     188.112

 3  4  5  6  7  8  9  10  11  12  23  26  30  31  33  0
 6-311+G(2d,p)
 ****
 35  36  37  38 0
 6-311+G(2d,p)
 ****
 1  2  13  14  15  16  17  18  19  20  21  22  24  25  27  28  29 0
 3-21G
 ****
 32  34  39  40  41  42  43  44  45  46  47  48  49 0
 3-21G
 ****


