%nproc=1
%NoSave
%Mem=1900MB
#P OB98/GEN NMR

erre ene a

0 1
  C     -635.752     590.615     274.416
  O     -635.177     591.060     275.621
  P     -634.372     592.422     275.752
  C     -636.292     594.108     276.364
  O     -635.345     593.643     275.390
  C     -636.091     595.604     276.665
  O     -636.324     596.350     275.447
  C     -637.108     596.096     277.717
  O     -636.528     596.975     278.678
  C     -638.244     596.641     276.861
  O     -639.090     597.555     277.555
  C     -637.490     597.187     275.646
  N     -640.719     599.873     272.786
  C     -639.973     600.293     273.859
  N     -640.263     601.505     274.371
  N     -639.055     599.553     274.432
  C     -638.965     598.297     273.920
  C     -639.644     597.791     272.832
  C     -640.636     598.609     272.194
  O     -641.384     598.262     271.293
  N     -639.329     596.460     272.630
  C     -638.479     596.169     273.600
  N     -638.253     597.244     274.419
  O     -632.988     592.445     275.193
  O     -634.252     592.568     277.367
  H     -639.904     597.629     277.027
  H     -633.395     592.985     277.547
  H     -641.474     600.474     272.440
  H     -638.025     595.212     273.757
  H     -637.130     598.213     275.835
  H     -638.860     595.778     276.572
  H     -641.062     602.016     274.037
  H     -637.458     595.265     278.320
  H     -639.932     601.736     275.291
  H     -635.039     595.774     276.962
  H     -636.106     593.513     277.261
  H     -637.302     593.913     276.027
  P     -636.995     597.263     280.180
  C     -634.563     597.089     280.997
  O     -635.888     596.637     281.170
  O     -638.259     596.320     280.415
  O     -637.358     598.681     280.480
  H     -638.928     596.776     280.955
  H     -633.878     596.399     281.519
  H     -634.450     598.083     281.405
  H     -634.296     597.102     279.929
  H     -636.239     589.676     274.579
  H     -634.986     590.497     273.678
  H     -636.468     591.334     274.075

 3  4  5  6  7  8  9  10  11  12  23  26  30  31 0
 6-311+G(2d,p)
 ****
 33  35  36  37  38 0
 6-311+G(2d,p)
 ****
 1  2  13  14  15  16  17  18  19  20  21  22  24  25 0
 3-21G
 ****
 27  28  29  32  34  39  40  41  42  43  44  45  46  47  48  49 0
 3-21G
 ****


