%nproc=1
%NoSave
%Mem=1900MB
#P OB98/GEN NMR

erre ene a

0 1
  C      297.120    -890.947     745.849
  O      296.448    -891.727     746.817
  H      297.657    -890.137     746.363
  H      296.404    -890.507     745.161
  H      297.850    -891.547     745.301
  P      295.742    -893.087     746.350
  C      295.991    -894.237     748.644
  O      295.090    -893.747     747.665
  C      295.212    -894.867     749.821
  O      294.558    -893.797     750.565
  C      294.117    -895.857     749.383
  O      293.984    -896.827     750.445
  C      292.901    -894.937     749.350
  O      291.681    -895.647     749.232
  C      293.145    -894.127     750.616
  N      292.339    -892.917     750.769
  C      291.283    -892.947     751.665
  O      290.975    -893.937     752.361
  N      290.544    -891.817     751.762
  C      290.762    -890.637     751.054
  O      290.079    -889.637     751.216
  C      291.894    -890.667     750.122
  C      292.616    -891.787     750.022
  O      296.578    -894.007     745.533
  O      294.449    -892.587     745.545
  H      294.614    -892.657     744.578
  H      290.937    -895.007     749.323
  H      289.781    -891.807     752.415
  H      292.073    -889.787     749.554
  H      293.461    -891.847     749.341
  H      293.006    -894.757     751.500
  H      292.953    -894.307     748.453
  H      294.332    -896.367     748.451
  H      295.926    -895.337     750.497
  H      296.603    -893.397     749.014
  H      296.644    -894.987     748.197
  P      293.603    -898.367     750.186
  C      295.726    -899.387     751.291
  O      294.289    -899.257     751.334
  O      293.897    -898.847     748.807
  O      292.035    -898.467     750.512
  H      291.649    -899.227     750.009
  H      296.053    -900.000     752.105
  H      296.174    -898.419     751.371
  H      296.016    -899.839     750.365

 6  7  8  9  10  11  12  13  14  15  16  27  31  32  33  34  35 0
 6-311+G(2d,p)
 ****
 36  37 0
 6-311+G(2d,p)
 ****
 1  2  3  4  5  17  18  19  20  21  22  23  24  25 0
 3-21G
 ****
 26  28  29  30  38  39  40  41  42  43  44  45 0
 3-21G
 ****


