%nproc=1
%NoSave
%Mem=1900MB
#P OB98/GEN NMR

erre ene a

0 1
  C     -446.136     275.336      18.971
  O     -445.296     276.445      18.722
  H     -446.123     274.683      18.098
  H     -447.161     275.674      19.144
  H     -445.782     274.766      19.836
  P     -444.991     277.467      19.918
  C     -443.377     275.975      21.274
  O     -443.518     277.126      20.453
  C     -441.945     275.865      21.810
  O     -441.938     274.914      22.926
  C     -440.917     275.357      20.779
  O     -439.654     275.947      21.123
  C     -440.929     273.868      21.071
  O     -439.872     273.183      20.446
  C     -440.950     273.911      22.606
  N     -441.265     272.650      23.263
  C     -440.473     272.262      24.336
  O     -439.524     272.914      24.776
  N     -440.802     271.065      24.920
  C     -441.828     270.247      24.553
  O     -442.099     269.204      25.131
  C     -442.630     270.707      23.404
  C     -442.319     271.865      22.827
  O     -446.040     277.565      20.975
  O     -444.776     278.869      19.171
  H     -445.582     279.413      19.261
  H     -440.036     273.151      19.481
  H     -440.239     270.775      25.703
  H     -443.445     270.076      23.081
  H     -442.901     272.237      21.985
  H     -439.986     274.278      22.980
  H     -441.849     273.418      20.681
  H     -441.173     275.622      19.752
  H     -441.647     276.835      22.223
  H     -443.611     275.091      20.664
  H     -444.089     276.033      22.102
  P     -438.965     277.122      20.275
  C     -440.676     278.906      21.031
  O     -439.309     278.520      20.982
  O     -439.296     277.090      18.817
  O     -437.391     276.947      20.513
  H     -436.903     277.315      19.752
  H     -440.762     279.851      21.526
  H     -441.236     278.169      21.569
  H     -441.059     278.988      20.035

 6  7  8  9  10  11  12  13  14  15  16  27  31  32  33  34  35 0
 6-311+G(2d,p)
 ****
 36  37 0
 6-311+G(2d,p)
 ****
 1  2  3  4  5  17  18  19  20  21  22  23  24  25 0
 3-21G
 ****
 26  28  29  30  38  39  40  41  42  43  44  45 0
 3-21G
 ****


