%nproc=1
%NoSave
%Mem=1900MB
#P OB98/GEN NMR

erre ene a

0 1
  C      -18.398      46.479       8.674
  O      -19.559      46.437       9.482
  H      -18.615      45.984       7.724
  H      -17.578      45.952       9.168
  H      -18.115      47.515       8.477
  P      -19.454      47.139      10.921
  C      -18.748      44.930      12.070
  O      -18.376      46.254      11.713
  C      -17.609      44.238      12.815
  O      -16.384      44.333      12.067
  C      -17.305      44.829      14.185
  O      -18.215      44.344      15.159
  C      -15.898      44.301      14.417
  O      -15.959      42.930      14.857
  C      -15.278      44.371      13.009
  N      -10.566      46.122      11.977
  C      -11.008      44.902      12.351
  N      -12.267      44.520      12.650
  C      -13.119      45.551      12.531
  C      -12.814      46.851      12.158
  C      -11.468      47.123      11.863
  N      -11.023      48.367      11.471
  N      -13.948      47.636      12.149
  C      -14.927      46.811      12.458
  N      -14.473      45.546      12.734
  O      -20.748      47.386      11.616
  O      -18.615      48.454      10.557
  H      -15.051      42.575      14.839
  H      -17.929      48.250       9.898
  H      -10.248      44.129      12.418
  H      -15.978      47.073      12.479
  H      -14.642      43.503      12.803
  H      -15.365      44.859      15.189
  H      -17.275      45.923      14.152
  H      -17.859      43.173      12.895
  H      -19.013      44.354      11.177
  H      -10.027      48.517      11.445
  H      -11.674      49.137      11.507
  H      -19.631      44.999      12.712
  P      -18.460      45.151      16.522
  C      -16.799      43.521      17.614
  O      -17.176      44.883      17.448
  O      -19.768      44.888      17.184
  O      -18.297      46.687      16.115
  H      -18.945      47.237      16.596
  H      -15.937      43.464      18.246
  H      -16.570      43.095      16.659
  H      -17.606      42.980      18.062

 6  7  8  9  10  11  12  13  14  15  25  28  32  33  34  35 0
 6-311+G(2d,p)
 ****
 36  39  40 0
 6-311+G(2d,p)
 ****
 1  2  3  4  5  16  17  18  19  20  21  22  23  24 0
 3-21G
 ****
 26  27  29  30  31  37  38  41  42  43  44  45  46  47 0
 3-21G
 ****
 48 0
 3-21G
 ****


