%nproc=1
%NoSave
%Mem=1900MB
#P OB98/GEN NMR

erre ene a

0 1
  C      540.481     328.348    -897.550
  O      540.704     326.983    -897.240
  H      539.944     328.818    -896.720
  H      539.872     328.428    -898.450
  H      541.428     328.873    -897.690
  P      541.654     326.164    -898.240
  C      543.661     324.551    -897.910
  O      542.841     325.565    -897.340
  C      544.553     323.926    -896.840
  O      545.389     324.938    -896.230
  C      543.786     323.256    -895.700
  O      543.380     321.935    -896.040
  C      544.865     323.235    -894.620
  O      545.804     322.176    -894.890
  C      545.536     324.598    -894.810
  N      545.099     326.501    -890.130
  C      545.770     325.380    -890.570
  N      546.411     324.651    -889.640
  N      545.803     324.994    -891.820
  C      545.122     325.812    -892.660
  C      544.417     326.961    -892.330
  C      544.387     327.370    -890.950
  O      543.830     328.369    -890.510
  N      543.853     327.525    -893.450
  C      544.183     326.716    -894.430
  N      544.956     325.666    -894.010
  O      542.380     327.325    -899.090
  O      540.966     325.186    -899.130
  H      545.284     321.350    -894.980
  H      542.509     327.007    -900.000
  H      545.099     326.739    -889.150
  H      543.918     326.868    -895.470
  H      546.602     324.576    -894.590
  H      544.446     323.057    -893.620
  H      546.379     324.846    -888.650
  H      542.946     323.869    -895.360
  H      546.938     323.835    -889.940
  H      545.223     323.199    -897.330
  H      544.293     324.996    -898.690
  H      543.017     323.783    -898.360
  P      542.578     321.091    -894.940
  C      540.438     319.612    -894.980
  O      541.240     320.584    -895.650
  O      542.058     322.222    -893.920
  O      543.388     320.040    -894.240
  H      541.881     321.831    -893.050
  H      539.584     319.379    -895.581
  H      540.115     320.004    -894.038
  H      541.014     318.725    -894.818

 6  7  8  9  10  11  12  13  14  15  26  29  33  34 0
 6-311+G(2d,p)
 ****
 36  38  39  40  41 0
 6-311+G(2d,p)
 ****
 1  2  3  4  5  16  17  18  19  20  21  22  23  24  25 0
 3-21G
 ****
 27  28  30  31  32  35  37  42  43  44  45  46  47 0
 3-21G
 ****
 48  49 0
 3-21G
 ****


