%nproc=1
%NoSave
%Mem=1900MB
#P OB98/GEN NMR

erre ene a

0 1
  C     -386.976      51.374     491.561
  O     -386.596      51.610     490.223
  H     -386.071      51.325     492.177
  H     -387.500      50.419     491.646
  H     -387.607      52.184     491.938
  P     -387.741      51.878     489.135
  C     -386.742      54.045     488.163
  O     -387.807      53.462     488.901
  C     -386.321      55.362     488.817
  O     -385.891      55.127     490.179
  C     -385.146      56.045     488.129
  O     -385.553      56.687     486.936
  C     -384.672      56.987     489.223
  O     -385.482      58.172     489.272
  C     -384.883      56.121     490.489
  N     -383.652      55.492     490.957
  C     -382.649      56.347     491.426
  O     -382.763      57.571     491.417
  N     -381.509      55.741     491.867
  C     -381.223      54.409     491.791
  O     -380.147      53.926     492.120
  C     -382.301      53.554     491.273
  C     -383.447      54.123     490.887
  O     -389.058      51.226     489.407
  O     -387.098      51.342     487.765
  H     -385.334      58.646     488.429
  H     -387.502      50.483     487.535
  H     -380.769      56.345     492.194
  H     -382.120      52.487     491.207
  H     -384.253      53.509     490.494
  H     -385.290      56.731     491.307
  H     -383.645      57.302     489.080
  H     -384.355      55.320     487.919
  H     -387.192      56.029     488.850
  H     -387.087      54.245     487.141
  H     -385.904      53.342     488.128
  P     -384.532      56.834     485.712
  C     -386.452      57.161     484.035
  O     -385.297      56.392     484.373
  O     -383.198      56.188     485.916
  O     -384.374      58.414     485.531
  H     -383.439      58.669     485.669
  H     -386.881      56.782     483.131
  H     -386.171      58.184     483.895
  H     -387.170      57.093     484.826

 6  7  8  9  10  11  12  13  14  15  16  26  31  32  33  34  35 0
 6-311+G(2d,p)
 ****
 36  37 0
 6-311+G(2d,p)
 ****
 1  2  3  4  5  17  18  19  20  21  22  23  24  25 0
 3-21G
 ****
 27  28  29  30  38  39  40  41  42  43  44  45 0
 3-21G
 ****


