%nproc=1
%NoSave
%Mem=1900MB
#P OB98/GEN NMR

erre ene a

0 1
  C      293.806    -357.165    -214.043
  O      292.720    -357.995    -214.395
  H      293.417    -356.246    -213.607
  H      294.378    -356.913    -214.938
  H      294.454    -357.657    -213.310
  P      293.061    -359.528    -214.744
  C      291.790    -359.565    -217.011
  O      291.868    -360.057    -215.677
  C      290.764    -360.354    -217.812
  O      290.988    -361.775    -217.661
  C      289.314    -360.108    -217.395
  O      288.787    -358.935    -218.004
  C      288.644    -361.359    -217.937
  O      288.470    -361.230    -219.363
  C      289.693    -362.439    -217.633
  N      286.931    -365.755    -214.958
  C      286.749    -365.285    -216.249
  N      285.680    -365.762    -216.918
  N      287.546    -364.423    -216.825
  C      288.567    -364.016    -216.029
  C      288.844    -364.402    -214.740
  C      287.966    -365.366    -214.119
  O      288.087    -365.825    -212.983
  N      289.961    -363.772    -214.254
  C      290.344    -362.989    -215.243
  N      289.528    -363.095    -216.347
  O      292.815    -360.274    -213.347
  O      294.443    -359.767    -215.249
  H      287.964    -362.008    -219.661
  H      293.676    -360.454    -212.926
  H      286.286    -366.411    -214.556
  H      291.202    -362.336    -215.215
  H      289.709    -363.228    -218.389
  H      287.650    -361.529    -217.511
  H      285.015    -366.405    -216.525
  H      289.204    -360.076    -216.298
  H      285.530    -365.434    -217.864
  H      290.904    -360.113    -218.872
  H      292.777    -359.666    -217.480
  H      291.511    -358.507    -216.986
  P      288.144    -357.811    -217.062
  C      285.814    -358.625    -217.857
  O      286.671    -357.516    -217.622
  O      288.968    -356.502    -217.462
  O      288.227    -358.080    -215.597
  H      289.538    -356.217    -216.716
  H      284.872    -358.276    -218.226
  H      285.663    -359.159    -216.942
  H      286.262    -359.275    -218.579

 6  7  8  9  10  11  12  13  14  15  26  29  33  34 0
 6-311+G(2d,p)
 ****
 36  38  39  40  41 0
 6-311+G(2d,p)
 ****
 1  2  3  4  5  16  17  18  19  20  21  22  23  24  25 0
 3-21G
 ****
 27  28  30  31  32  35  37  42  43  44  45  46  47 0
 3-21G
 ****
 48  49 0
 3-21G
 ****


