%nproc=1
%NoSave
%Mem=1900MB
#P OB98/GEN NMR

erre ene a

0 1
  C      257.442     930.446     413.557
  O      257.100     930.474     412.174
  P      255.747     931.092     411.582
  C      255.135     933.601     411.995
  O      255.969     932.657     411.353
  C      255.267     935.028     411.422
  O      256.632     935.514     411.632
  C      255.042     935.021     409.904
  O      253.728     935.079     409.385
  C      255.959     936.114     409.383
  O      255.297     937.369     409.239
  C      257.051     936.218     410.444
  N      261.162     936.930     407.476
  C      260.013     937.681     407.579
  N      259.926     938.766     406.747
  N      259.033     937.432     408.398
  C      259.220     936.281     409.112
  C      260.303     935.439     409.089
  C      261.391     935.772     408.208
  O      262.451     935.133     408.081
  N      260.117     934.375     409.924
  C      258.926     934.549     410.441
  N      258.338     935.708     409.982
  O      254.497     930.685     412.290
  O      255.678     930.486     410.089
  H      254.780     937.537     410.039
  H      254.727     930.373     409.876
  H      261.899     937.195     406.832
  H      258.441     933.899     411.161
  H      257.206     937.256     410.750
  H      256.333     935.854     408.381
  H      260.578     938.940     406.005
  H      255.462     934.083     409.526
  H      258.995     939.175     406.673
  H      254.616     935.720     411.944
  H      255.393     933.596     413.053
  H      254.083     933.295     411.915
  P      252.840     933.813     408.928
  C      251.264     932.102     409.999
  O      252.094     933.232     410.211
  O      253.924     932.681     408.593
  O      251.962     934.060     407.732
  H      253.526     931.972     408.059
  H      250.579     932.006     410.864
  H      251.876     931.201     409.905
  H      250.663     932.224     409.080
  H      258.397     929.979     413.679
  H      256.702     929.892     414.096
  H      257.483     931.446     413.935

 3  4  5  6  7  8  9  10  11  12  23  26  30  31 0
 6-311+G(2d,p)
 ****
 33  35  36  37  38 0
 6-311+G(2d,p)
 ****
 1  2  13  14  15  16  17  18  19  20  21  22  24  25 0
 3-21G
 ****
 27  28  29  32  34  39  40  41  42  43  44  45  46  47  48  49 0
 3-21G
 ****


