%nproc=1
%NoSave
%Mem=1900MB
#P OB98/GEN NMR

erre ene a

0 1
  C      138.540     119.722     141.176
  O      137.358     118.968     141.351
  H      139.189     119.198     140.468
  H      139.075     119.832     142.123
  H      138.302     120.707     140.766
  P      136.302     119.434     142.461
  C      135.733     118.734     144.875
  O      136.643     118.600     143.790
  C      135.643     117.430     145.668
  O      134.989     116.430     144.843
  C      137.006     116.877     146.100
  O      136.867     116.301     147.401
  C      137.270     115.803     145.066
  O      138.175     114.827     145.547
  C      135.859     115.286     144.764
  N      135.803     114.642     143.452
  C      135.798     113.243     143.444
  O      135.828     112.614     144.502
  N      135.829     112.586     142.240
  C      135.914     113.265     141.138
  N      135.980     112.552     139.982
  C      135.946     114.741     141.101
  C      135.888     115.359     142.281
  O      134.866     119.404     142.058
  O      136.775     120.918     142.833
  H      137.835     114.451     146.383
  H      136.319     121.567     142.264
  H      136.025     115.259     140.157
  H      135.918     116.440     142.352
  H      135.538     114.563     145.526
  H      137.707     116.255     144.165
  H      137.792     117.638     146.109
  H      134.993     117.596     146.540
  H      135.977     111.541     140.059
  H      134.750     118.980     144.460
  H      136.091     112.965     139.069
  H      136.054     119.550     145.528
  P      137.782     116.805     148.621
  C      140.093     116.277     149.588
  O      139.275     116.243     148.423
  O      137.203     116.565     149.978
  O      137.943     118.378     148.351
  H      138.047     118.841     149.205
  H      141.061     115.885     149.356
  H      139.643     115.684     150.357
  H      140.189     117.287     149.927

 6  7  8  9  10  11  12  13  14  15  16  26  30  31  32  33  35 0
 6-311+G(2d,p)
 ****
 37  38 0
 6-311+G(2d,p)
 ****
 1  2  3  4  5  17  18  19  20  21  22  23  24  25 0
 3-21G
 ****
 27  28  29  34  36  39  40  41  42  43  44  45  46 0
 3-21G
 ****


