%nproc=1
%NoSave
%Mem=1900MB
#P OB98/GEN NMR

erre ene a

0 1
  C      119.357      82.827     -56.957
  O      119.151      84.219     -57.065
  H      120.275      82.650     -56.391
  H      119.475      82.392     -57.952
  H      118.526      82.343     -56.436
  P      117.741      84.759     -57.600
  C      118.254      84.480     -60.113
  O      117.491      84.026     -59.005
  C      117.557      84.101     -61.422
  O      116.336      84.893     -61.535
  C      118.412      84.380     -62.676
  O      118.121      83.379     -63.657
  C      117.865      85.720     -63.121
  O      118.157      85.986     -64.470
  C      116.380      85.548     -62.814
  N      115.682      86.831     -62.809
  C      115.505      87.454     -64.039
  O      115.910      86.990     -65.103
  N      114.905      88.683     -64.006
  C      114.576      89.381     -62.882
  O      114.113      90.512     -62.909
  C      114.835      88.694     -61.606
  C      115.362      87.468     -61.628
  O      117.578      86.241     -57.633
  O      116.662      84.048     -56.655
  H      117.746      86.827     -64.740
  H      115.820      84.542     -56.668
  H      114.760      89.143     -64.892
  H      114.600      89.226     -60.694
  H      115.584      86.940     -60.708
  H      115.903      84.884     -63.545
  H      118.301      86.524     -62.520
  H      119.484      84.400     -62.468
  H      117.254      83.049     -61.376
  H      119.241      84.009     -60.066
  H      118.374      85.567     -60.052
  P      119.124      82.160     -63.947
  C      119.585      82.729     -66.407
  O      120.158      82.548     -65.117
  O      118.447      80.843     -64.149
  O      120.053      82.098     -62.643
  H      120.136      81.170     -62.353
  H      120.354      82.983     -67.106
  H      118.863      83.518     -66.369
  H      119.107      81.823     -66.715

 6  7  8  9  10  11  12  13  14  15  16  26  31  32  33  34  35 0
 6-311+G(2d,p)
 ****
 36  37 0
 6-311+G(2d,p)
 ****
 1  2  3  4  5  17  18  19  20  21  22  23  24  25 0
 3-21G
 ****
 27  28  29  30  38  39  40  41  42  43  44  45 0
 3-21G
 ****


