%nproc=1
%NoSave
%Mem=1900MB
#P OB98/GEN NMR

erre ene a

0 1
  C     -366.788     162.172     216.859
  O     -365.691     161.644     217.573
  P     -365.578     161.879     219.152
  C     -363.951     163.817     218.686
  O     -365.120     163.399     219.388
  C     -363.172     164.841     219.511
  O     -364.050     165.899     219.964
  C     -362.543     164.267     220.780
  O     -361.378     163.521     220.468
  C     -362.299     165.533     221.585
  O     -361.082     166.174     221.161
  C     -363.517     166.391     221.214
  N     -365.980     169.223     224.674
  C     -364.888     169.466     223.918
  N     -364.262     168.644     223.044
  C     -364.876     167.448     223.012
  C     -365.975     167.035     223.748
  C     -366.552     167.989     224.602
  N     -367.702     167.772     225.330
  N     -366.279     165.722     223.461
  C     -365.383     165.348     222.577
  N     -364.554     166.371     222.222
  O     -364.782     160.859     219.898
  O     -367.101     161.885     219.647
  H     -360.935     166.935     221.754
  H     -367.231     161.164     220.288
  H     -364.462     170.459     224.019
  H     -365.304     164.354     222.154
  H     -363.247     167.439     221.048
  H     -362.201     165.337     222.656
  H     -363.274     163.638     221.304
  H     -362.402     165.287     218.868
  H     -364.261     164.269     217.736
  H     -368.109     168.573     225.789
  H     -368.305     166.992     225.064
  H     -363.324     162.945     218.475
  P     -360.897     162.357     221.456
  C     -358.929     163.670     222.442
  O     -360.183     163.066     222.701
  O     -360.119     161.250     220.816
  O     -362.262     161.806     222.092
  H     -362.176     160.856     222.279
  H     -358.155     162.906     222.400
  H     -358.697     164.360     223.263
  H     -358.948     164.230     221.503
  H     -366.696     161.917     215.824
  H     -366.803     163.237     216.964
  H     -367.697     161.762     217.248

 3  4  5  6  7  8  9  10  11  12  22  25  29  30  31  32 0
 6-311+G(2d,p)
 ****
 33  36  37 0
 6-311+G(2d,p)
 ****
 1  2  13  14  15  16  17  18  19  20  21  23  24  26 0
 3-21G
 ****
 27  28  34  35  38  39  40  41  42  43  44  45  46  47  48 0
 3-21G
 ****


