%nproc=1
%NoSave
%Mem=1900MB
#P OB98/GEN NMR

erre ene a

0 1
  C     -209.254      53.726      74.843
  O     -209.378      55.025      74.284
  P     -208.422      55.505      73.084
  C     -205.900      56.041      72.889
  O     -206.964      55.628      73.738
  C     -204.968      56.984      73.648
  O     -205.676      58.193      73.986
  C     -204.441      56.427      74.962
  O     -203.406      55.481      74.740
  C     -204.013      57.713      75.668
  O     -202.735      58.149      75.175
  C     -205.113      58.699      75.221
  N     -206.148      58.891      76.232
  C     -205.881      59.845      77.223
  O     -204.831      60.483      77.224
  N     -206.837      60.077      78.185
  C     -207.950      59.407      78.171
  N     -208.887      59.730      79.106
  C     -208.247      58.357      77.180
  C     -207.314      58.159      76.246
  O     -208.888      56.726      72.362
  O     -208.275      54.219      72.148
  H     -202.077      57.495      75.489
  H     -208.981      54.148      71.457
  H     -209.181      57.816      77.218
  H     -207.465      57.420      75.468
  H     -204.671      59.673      74.977
  H     -203.937      57.608      76.756
  H     -205.251      55.951      75.529
  H     -204.134      57.249      72.981
  H     -208.714      60.569      79.650
  H     -206.325      56.570      72.029
  H     -209.859      59.470      78.990
  H     -205.360      55.158      72.529
  P     -203.425      54.142      75.625
  C     -203.038      53.656      78.145
  O     -202.864      54.564      77.071
  O     -202.256      53.261      74.981
  O     -204.736      53.424      75.633
  H     -202.628      52.574      74.397
  H     -202.405      53.979      78.977
  H     -202.746      52.645      77.849
  H     -204.081      53.664      78.476
  H     -209.976      53.603      75.623
  H     -208.270      53.603      75.245
  H     -209.423      52.993      74.082

 3  4  5  6  7  8  9  10  11  12  13  23  27  28  29  30  32 0
 6-311+G(2d,p)
 ****
 34  35 0
 6-311+G(2d,p)
 ****
 1  2  14  15  16  17  18  19  20  21  22  24  25  26 0
 3-21G
 ****
 31  33  36  37  38  39  40  41  42  43  44  45  46 0
 3-21G
 ****


