%nproc=1
%NoSave
%Mem=1900MB
#P OB98/GEN NMR

erre ene a

0 1
  C        5.198     157.683     533.419
  O        6.317     158.387     532.928
  H        4.694     158.301     534.167
  H        5.518     156.751     533.893
  H        4.497     157.467     532.609
  P        7.195     157.667     531.789
  C        7.898     159.952     530.759
  O        8.317     158.748     531.387
  C        7.348     160.934     531.798
  O        8.342     161.132     532.835
  C        7.005     162.306     531.214
  O        5.760     162.752     531.755
  C        8.143     163.202     531.670
  O        7.753     164.569     531.758
  C        8.553     162.546     532.995
  N        9.940     162.843     533.341
  C       10.279     164.190     533.495
  O        9.429     165.067     533.326
  N       11.581     164.516     533.783
  C       12.478     163.584     533.850
  N       13.754     163.975     534.114
  C       12.176     162.155     533.647
  C       10.900     161.859     533.404
  O        6.212     157.658     530.531
  O        7.730     156.323     532.154
  H        6.984     164.627     532.367
  H        6.540     157.056     529.818
  H       12.964     161.415     533.696
  H       10.584     160.833     533.241
  H        7.904     162.894     533.814
  H        8.968     163.134     530.949
  H        6.931     162.298     530.128
  H        6.478     160.480     532.283
  H       13.925     164.966     534.237
  H        7.115     159.719     530.029
  H       14.537     163.339     534.160
  H        8.749     160.404     530.240
  P        4.439     162.235     531.005
  C        2.675     162.323     532.899
  O        3.176     162.923     531.718
  O        4.337     160.699     531.440
  O        4.490     162.406     529.522
  H        4.689     160.122     530.736
  H        1.840     162.887     533.259
  H        3.442     162.308     533.644
  H        2.364     161.321     532.686

 6  7  8  9  10  11  12  13  14  15  16  26  30  31  32  33  35 0
 6-311+G(2d,p)
 ****
 37  38 0
 6-311+G(2d,p)
 ****
 1  2  3  4  5  17  18  19  20  21  22  23  24  25 0
 3-21G
 ****
 27  28  29  34  36  39  40  41  42  43  44  45  46 0
 3-21G
 ****


