%nproc=1
%NoSave
%Mem=1900MB
#P OB98/GEN NMR

erre ene a

0 1
  C      503.864    -387.126     335.532
  O      503.813    -386.445     336.772
  H      504.818    -387.645     335.427
  H      503.054    -387.861     335.499
  H      503.729    -386.417     334.711
  P      504.943    -385.343     337.042
  C      503.757    -383.528     335.619
  O      504.919    -384.330     335.793
  C      504.141    -382.189     334.989
  O      504.720    -382.450     333.686
  C      502.970    -381.210     334.805
  O      503.239    -379.983     335.491
  C      502.941    -380.926     333.309
  O      502.682    -379.560     333.001
  C      504.329    -381.355     332.845
  N      503.545    -379.708     328.083
  C      503.866    -379.044     329.217
  N      504.167    -379.552     330.431
  C      504.138    -380.895     330.404
  C      503.856    -381.713     329.317
  C      503.525    -381.061     328.117
  N      503.148    -381.738     326.975
  N      503.916    -383.046     329.683
  C      504.186    -383.036     330.969
  N      504.316    -381.758     331.453
  O      506.307    -386.158     336.835
  O      504.887    -384.692     338.381
  H      502.586    -379.504     332.032
  H      506.915    -385.978     337.579
  H      503.877    -377.963     329.143
  H      504.261    -383.910     331.607
  H      505.072    -380.550     332.965
  H      502.164    -381.545     332.848
  H      502.013    -381.625     335.143
  H      504.925    -381.732     335.607
  H      503.292    -383.341     336.591
  H      502.814    -381.191     326.196
  H      503.020    -382.736     327.029
  H      503.043    -384.063     334.990
  P      502.971    -379.972     337.080
  C      505.439    -380.054     337.897
  O      504.195    -380.736     337.779
  O      501.754    -381.006     337.243
  O      502.642    -378.628     337.630
  H      501.233    -380.783     338.039
  H      506.150    -380.690     338.381
  H      505.304    -379.164     338.476
  H      505.798    -379.795     336.923

 6  7  8  9  10  11  12  13  14  15  25  28  32  33  34  35 0
 6-311+G(2d,p)
 ****
 36  39  40 0
 6-311+G(2d,p)
 ****
 1  2  3  4  5  16  17  18  19  20  21  22  23  24 0
 3-21G
 ****
 26  27  29  30  31  37  38  41  42  43  44  45  46  47  48 0
 3-21G
 ****


