%nproc=1
%NoSave
%Mem=1900MB
#P OB98/GEN NMR

erre ene a

0 1
  C      163.753    -312.220     -12.333
  O      162.717    -311.670     -13.121
  H      163.476    -312.137     -11.277
  H      164.684    -311.668     -12.498
  H      163.899    -313.276     -12.579
  P      162.927    -311.691     -14.710
  C      163.482    -314.202     -15.072
  O      162.513    -313.169     -15.201
  C      162.894    -315.542     -15.522
  O      161.626    -315.754     -14.837
  C      162.625    -315.628     -17.034
  O      162.933    -316.954     -17.482
  C      161.123    -315.408     -17.130
  O      160.577    -315.950     -18.328
  C      160.655    -316.097     -15.849
  N      155.836    -317.556     -15.737
  C      156.969    -318.232     -16.148
  N      156.795    -319.496     -16.601
  N      158.171    -317.718     -16.121
  C      158.204    -316.456     -15.614
  C      157.154    -315.673     -15.189
  C      155.827    -316.251     -15.246
  O      154.782    -315.692     -14.916
  N      157.596    -314.435     -14.782
  C      158.903    -314.475     -14.964
  N      159.319    -315.682     -15.462
  O      164.522    -311.682     -14.878
  O      162.278    -310.576     -15.459
  H      159.636    -315.682     -18.376
  H      164.782    -311.236     -15.704
  H      154.936    -317.992     -15.793
  H      159.590    -313.664     -14.757
  H      160.633    -317.191     -15.950
  H      160.897    -314.336     -17.100
  H      155.906    -319.969     -16.622
  H      163.189    -314.900     -17.623
  H      157.619    -320.014     -16.893
  H      163.564    -316.344     -15.196
  H      163.790    -314.275     -14.023
  H      164.356    -313.956     -15.684
  P      163.960    -317.106     -18.706
  C      166.223    -316.463     -17.603
  O      165.404    -317.504     -18.122
  O      164.160    -315.586     -19.194
  O      163.453    -317.968     -19.817
  H      163.707    -315.458     -20.050
  H      167.146    -316.876     -17.253
  H      165.717    -315.982     -16.792
  H      166.422    -315.748     -18.374

 6  7  8  9  10  11  12  13  14  15  26  29  33  34 0
 6-311+G(2d,p)
 ****
 36  38  39  40  41 0
 6-311+G(2d,p)
 ****
 1  2  3  4  5  16  17  18  19  20  21  22  23  24  25 0
 3-21G
 ****
 27  28  30  31  32  35  37  42  43  44  45  46  47 0
 3-21G
 ****
 48  49 0
 3-21G
 ****


