%nproc=1
%NoSave
%Mem=1900MB
#P OB98/GEN NMR

erre ene a

0 1
  C      160.574     175.126     134.129
  O      160.084     176.414     133.816
  H      160.064     174.766     135.025
  H      161.647     175.173     134.333
  H      160.381     174.426     133.312
  P      160.533     177.097     132.439
  C      159.167     175.454     130.989
  O      160.453     175.962     131.311
  C      158.990     175.341     129.471
  O      160.055     174.496     128.940
  C      157.652     174.708     129.035
  O      157.313     175.279     127.763
  C      158.057     173.252     128.899
  O      157.083     172.478     128.247
  C      159.413     173.432     128.202
  N      160.260     172.248     128.165
  C      160.344     171.550     126.963
  O      159.755     171.865     125.930
  N      161.144     170.438     126.977
  C      161.863     169.977     128.040
  O      162.589     168.992     127.983
  C      161.729     170.752     129.284
  C      160.951     171.836     129.288
  O      161.815     177.858     132.479
  O      159.297     178.048     132.070
  H      159.516     178.972     132.297
  H      156.408     172.194     128.901
  H      161.221     169.923     126.113
  H      162.277     170.407     130.150
  H      160.841     172.434     130.187
  H      159.262     173.799     127.181
  H      158.182     172.805     129.888
  H      156.841     174.889     129.745
  H      159.120     176.335     129.024
  H      158.416     176.139     131.399
  H      159.042     174.471     131.456
  P      156.400     176.589     127.597
  C      158.131     178.489     127.280
  O      157.222     177.845     128.168
  O      155.032     176.451     128.182
  O      156.329     176.858     126.021
  H      155.506     177.338     125.809
  H      158.607     179.303     127.786
  H      157.597     178.861     126.431
  H      158.871     177.787     126.957

 6  7  8  9  10  11  12  13  14  15  16  27  31  32  33  34  35 0
 6-311+G(2d,p)
 ****
 36  37 0
 6-311+G(2d,p)
 ****
 1  2  3  4  5  17  18  19  20  21  22  23  24  25 0
 3-21G
 ****
 26  28  29  30  38  39  40  41  42  43  44  45 0
 3-21G
 ****


