%nproc=1
%NoSave
%Mem=1900MB
#P OB98/GEN NMR

erre ene a

0 1
  C     -722.595    -447.711    -675.019
  O     -722.609    -448.132    -676.381
  P     -721.221    -448.547    -677.067
  C     -721.916    -450.930    -677.780
  O     -721.048    -450.139    -676.970
  C     -722.823    -451.816    -676.907
  O     -723.695    -450.975    -676.118
  C     -723.748    -452.764    -677.680
  O     -723.258    -454.050    -678.027
  C     -724.869    -452.974    -676.672
  O     -724.493    -454.008    -675.737
  C     -724.959    -451.637    -675.947
  N     -729.927    -450.498    -675.494
  C     -729.152    -451.386    -674.842
  N     -727.829    -451.624    -675.027
  C     -727.327    -450.824    -675.978
  C     -728.005    -449.875    -676.728
  C     -729.373    -449.718    -676.452
  N     -730.178    -448.824    -677.117
  N     -727.155    -449.259    -677.622
  C     -725.986    -449.843    -677.433
  N     -726.033    -450.786    -676.445
  O     -720.027    -447.747    -676.662
  O     -721.540    -448.338    -678.629
  H     -725.143    -453.971    -675.007
  H     -720.737    -447.982    -679.072
  H     -729.635    -451.973    -674.074
  H     -725.096    -449.612    -677.983
  H     -725.121    -451.763    -674.869
  H     -725.795    -453.309    -677.144
  H     -724.139    -452.268    -678.577
  H     -722.188    -452.397    -676.218
  H     -721.312    -451.562    -678.451
  H     -731.163    -448.807    -676.893
  H     -729.794    -448.277    -677.875
  H     -722.487    -450.242    -678.409
  P     -722.504    -454.319    -679.422
  C     -720.286    -455.531    -678.742
  O     -720.939    -454.322    -679.062
  O     -722.883    -453.399    -680.527
  O     -722.810    -455.861    -679.700
  H     -722.387    -456.480    -679.075
  H     -719.201    -455.355    -678.762
  H     -720.515    -456.316    -679.477
  H     -720.576    -455.868    -677.756
  H     -723.591    -447.470    -674.710
  H     -721.972    -446.847    -674.919
  H     -722.212    -448.500    -674.406

 3  4  5  6  7  8  9  10  11  12  22  25  29  30  31  32 0
 6-311+G(2d,p)
 ****
 33  36  37 0
 6-311+G(2d,p)
 ****
 1  2  13  14  15  16  17  18  19  20  21  23  24  26 0
 3-21G
 ****
 27  28  34  35  38  39  40  41  42  43  44  45  46  47  48 0
 3-21G
 ****


