%nproc=1
%NoSave
%Mem=1900MB
#P OB98/GEN NMR

erre ene a

0 1
  C     -103.866      43.608       6.700
  O     -102.970      44.344       5.889
  H     -103.317      42.791       7.177
  H     -104.669      43.181       6.093
  H     -104.290      44.246       7.479
  P     -103.542      45.600       5.075
  C     -105.412      45.957       3.328
  O     -104.707      45.022       4.135
  C     -106.169      45.230       2.222
  O     -105.247      44.686       1.257
  C     -107.018      44.060       2.719
  O     -108.250      44.530       3.243
  C     -107.177      43.268       1.432
  O     -108.157      43.903       0.589
  C     -105.774      43.404       0.811
  N     -104.210      38.665      -0.086
  C     -105.253      39.378      -0.650
  N     -106.011      38.715      -1.550
  N     -105.536      40.617      -0.343
  C     -104.735      41.124       0.624
  C     -103.684      40.512       1.268
  C     -103.343      39.159       0.880
  O     -102.418      38.497       1.342
  N     -103.146      41.321       2.237
  C     -103.850      42.435       2.153
  N     -104.836      42.361       1.198
  O     -102.533      46.434       4.342
  O     -104.339      46.447       6.172
  H     -109.006      43.859       1.067
  H     -103.770      47.129       6.573
  H     -104.055      37.706      -0.352
  H     -103.685      43.320       2.755
  H     -105.803      43.424      -0.284
  H     -107.503      42.242       1.596
  H     -106.014      37.704      -1.605
  H     -106.476      43.441       3.444
  H     -106.809      39.204      -1.937
  H     -106.787      45.968       1.696
  H     -104.675      46.646       2.899
  H     -106.116      46.532       3.938
  P     -108.826      43.971       4.635
  C     -109.243      41.593       5.562
  O     -108.987      42.391       4.413
  O     -110.055      44.660       5.127
  O     -107.591      44.055       5.644
  H     -107.520      44.925       6.111
  H     -109.327      40.567       5.272
  H     -110.156      41.910       6.020
  H     -108.438      41.702       6.258

 6  7  8  9  10  11  12  13  14  15  26  29  33  34 0
 6-311+G(2d,p)
 ****
 36  38  39  40  41 0
 6-311+G(2d,p)
 ****
 1  2  3  4  5  16  17  18  19  20  21  22  23  24  25 0
 3-21G
 ****
 27  28  30  31  32  35  37  42  43  44  45  46  47 0
 3-21G
 ****
 48  49 0
 3-21G
 ****


