%nproc=1
%NoSave
%Mem=1900MB
#P OB98/GEN NMR

erre ene a

0 1
  C       17.106     -41.363     -42.851
  O       17.548     -42.642     -43.263
  H       17.730     -40.606     -43.332
  H       17.207     -41.267     -41.767
  H       16.065     -41.205     -43.146
  P       16.650     -43.895     -42.811
  C       16.707     -46.438     -43.463
  O       17.372     -45.189     -43.425
  C       17.398     -47.386     -44.445
  O       17.139     -46.925     -45.795
  C       18.914     -47.465     -44.261
  O       19.334     -48.802     -44.541
  C       19.446     -46.536     -45.339
  O       20.791     -46.842     -45.696
  C       18.409     -46.746     -46.454
  N       18.375     -45.633     -47.400
  C       19.271     -45.690     -48.471
  O       20.051     -46.638     -48.578
  N       19.297     -44.656     -49.371
  C       18.539     -43.621     -49.184
  N       18.630     -42.618     -50.098
  C       17.610     -43.497     -48.044
  C       17.572     -44.532     -47.206
  O       15.351     -43.714     -43.727
  O       16.370     -43.956     -41.347
  H       21.316     -46.950     -44.873
  H       15.556     -43.496     -44.651
  H       17.006     -42.610     -47.924
  H       16.913     -44.530     -46.347
  H       18.627     -47.666     -47.013
  H       19.420     -45.498     -44.988
  H       19.234     -47.179     -43.258
  H       16.937     -48.377     -44.355
  H       19.296     -42.734     -50.851
  H       15.663     -46.304     -43.761
  H       18.130     -41.745     -50.022
  H       16.721     -46.860     -42.453
  P       19.805     -49.748     -43.339
  C       20.189     -52.278     -42.961
  O       20.102     -51.218     -43.906
  O       18.964     -49.698     -42.108
  O       21.284     -49.202     -43.021
  H       21.395     -49.191     -42.051
  H       20.389     -53.196     -43.472
  H       19.263     -52.360     -42.431
  H       20.980     -52.075     -42.269

 6  7  8  9  10  11  12  13  14  15  16  26  30  31  32  33  35 0
 6-311+G(2d,p)
 ****
 37  38 0
 6-311+G(2d,p)
 ****
 1  2  3  4  5  17  18  19  20  21  22  23  24  25 0
 3-21G
 ****
 27  28  29  34  36  39  40  41  42  43  44  45  46 0
 3-21G
 ****


