%nproc=1
%NoSave
%Mem=1900MB
#P OB98/GEN NMR

erre ene a

0 1
  C      298.044     139.712     -39.153
  O      298.700     140.801     -39.816
  P      298.077     142.275     -39.897
  C      299.120     142.679     -42.223
  O      298.957     143.170     -40.894
  C      300.497     143.034     -42.790
  O      301.526     142.263     -42.139
  C      300.666     142.758     -44.279
  O      300.013     143.743     -45.059
  C      302.186     142.747     -44.405
  O      302.706     144.083     -44.511
  C      302.612     142.097     -43.072
  N      302.976     140.695     -43.226
  C      304.322     140.424     -43.485
  O      305.128     141.345     -43.632
  N      304.717     139.114     -43.600
  C      303.836     138.167     -43.534
  N      304.288     136.886     -43.646
  C      302.394     138.413     -43.352
  C      302.040     139.689     -43.205
  O      297.837     142.909     -38.564
  O      296.692     142.098     -40.684
  H      302.383     144.568     -43.727
  H      296.057     142.768     -40.368
  H      301.689     137.598     -43.332
  H      301.001     139.959     -43.056
  H      303.465     142.635     -42.642
  H      302.531     142.199     -45.286
  H      300.275     141.762     -44.517
  H      300.686     144.094     -42.573
  H      305.284     136.750     -43.762
  H      298.343     143.130     -42.850
  H      303.688     136.077     -43.606
  H      298.979     141.594     -42.216
  P      299.162     143.306     -46.342
  C      300.534     144.567     -48.108
  O      299.294     144.473     -47.430
  O      297.769     142.846     -46.068
  O      300.036     142.126     -46.990
  H      299.435     141.490     -47.423
  H      300.377     145.091     -49.054
  H      300.948     143.577     -48.312
  H      301.237     145.140     -47.495
  H      298.648     138.832     -39.230
  H      297.094     139.534     -39.613
  H      297.900     139.957     -38.121

 3  4  5  6  7  8  9  10  11  12  13  23  27  28  29  30  32 0
 6-311+G(2d,p)
 ****
 34  35 0
 6-311+G(2d,p)
 ****
 1  2  14  15  16  17  18  19  20  21  22  24  25  26 0
 3-21G
 ****
 31  33  36  37  38  39  40  41  42  43  44  45  46 0
 3-21G
 ****


