%nproc=1
%NoSave
%Mem=1900MB
#P OB98/GEN NMR

erre ene a

0 1
  C       25.191    -445.492     237.437
  O       25.515    -445.817     238.775
  H       25.277    -444.412     237.294
  H       25.900    -445.993     236.774
  H       24.179    -445.822     237.190
  P       24.437    -445.443     239.900
  C       22.631    -447.258     239.474
  O       23.005    -445.895     239.329
  C       22.119    -447.525     240.886
  O       21.053    -446.580     241.177
  C       21.562    -448.943     241.104
  O       21.944    -449.385     242.410
  C       20.059    -448.734     241.070
  O       19.349    -449.737     241.790
  C       19.938    -447.343     241.676
  N       14.921    -447.547     242.471
  C       15.964    -448.072     243.147
  N       17.279    -447.921     242.899
  C       17.475    -447.085     241.868
  C       16.515    -446.465     241.084
  C       15.176    -446.742     241.413
  N       14.107    -446.268     240.687
  N       17.111    -445.724     240.083
  C       18.407    -445.910     240.245
  N       18.678    -446.729     241.310
  O       24.388    -443.842     239.811
  O       24.755    -445.914     241.282
  H       19.454    -449.574     242.744
  H       25.074    -443.463     240.387
  H       15.707    -448.706     243.998
  H       19.183    -445.511     239.609
  H       19.991    -447.353     242.776
  H       19.713    -448.743     240.031
  H       21.901    -449.668     240.355
  H       22.932    -447.318     241.596
  H       23.509    -447.892     239.289
  H       13.186    -446.602     240.930
  H       14.283    -445.758     239.833
  H       21.858    -447.503     238.737
  P       23.440    -449.936     242.597
  C       24.253    -448.013     244.152
  O       24.402    -448.695     242.915
  O       23.859    -450.366     241.117
  O       23.545    -451.080     243.553
  H       24.461    -451.128     241.143
  H       24.965    -447.216     244.208
  H       24.418    -448.697     244.958
  H       23.263    -447.612     244.221

 6  7  8  9  10  11  12  13  14  15  25  28  32  33  34  35 0
 6-311+G(2d,p)
 ****
 36  39  40 0
 6-311+G(2d,p)
 ****
 1  2  3  4  5  16  17  18  19  20  21  22  23  24 0
 3-21G
 ****
 26  27  29  30  31  37  38  41  42  43  44  45  46  47 0
 3-21G
 ****
 48 0
 3-21G
 ****


