%nproc=1
%NoSave
%Mem=1900MB
#P OB98/GEN NMR

erre ene a

0 1
  C     -159.239     250.381     108.635
  O     -159.431     249.105     109.212
  H     -159.891     251.116     109.119
  H     -158.198     250.684     108.782
  H     -159.447     250.346     107.559
  P     -160.914     248.493     109.110
  C     -160.699     247.125     106.918
  O     -160.782     247.087     108.339
  C     -159.579     246.204     106.434
  O     -158.315     246.908     106.600
  C     -159.493     244.868     107.191
  O     -159.434     243.769     106.270
  C     -158.168     244.947     107.936
  O     -157.516     243.686     108.040
  C     -157.373     245.936     107.089
  N     -152.443     245.693     108.382
  C     -153.119     245.164     107.337
  N     -154.412     245.348     106.996
  C     -155.010     246.201     107.849
  C     -154.444     246.834     108.942
  C     -153.099     246.536     109.214
  N     -152.422     247.030     110.309
  N     -155.378     247.635     109.586
  C     -156.495     247.452     108.913
  N     -156.332     246.584     107.865
  O     -161.629     249.448     108.037
  O     -161.659     248.459     110.400
  H     -157.356     243.364     107.135
  H     -162.387     249.888     108.468
  H     -152.548     244.501     106.691
  H     -157.461     247.883     109.165
  H     -156.903     245.455     106.221
  H     -158.349     245.334     108.944
  H     -160.329     244.715     107.878
  H     -159.712     246.029     105.359
  H     -160.487     248.150     106.592
  H     -151.501     246.673     110.494
  H     -152.939     247.568     110.994
  H     -161.660     246.812     106.495
  P     -160.674     242.737     106.314
  C     -162.381     243.569     104.539
  O     -161.316     242.670     104.844
  O     -161.763     243.520     107.187
  O     -160.329     241.419     106.923
  H     -162.030     242.977     107.957
  H     -162.705     243.410     103.532
  H     -162.039     244.577     104.648
  H     -163.198     243.395     105.208

 6  7  8  9  10  11  12  13  14  15  25  28  32  33  34  35 0
 6-311+G(2d,p)
 ****
 36  39  40 0
 6-311+G(2d,p)
 ****
 1  2  3  4  5  16  17  18  19  20  21  22  23  24 0
 3-21G
 ****
 26  27  29  30  31  37  38  41  42  43  44  45  46  47  48 0
 3-21G
 ****


