%nproc=1
%NoSave
%Mem=1900MB
#P OB98/GEN NMR

erre ene a

0 1
  C       91.991      20.448    -189.913
  O       92.331      19.645    -191.029
  P       92.255      20.327    -192.480
  C       94.365      19.290    -193.593
  O       93.769      20.436    -192.991
  C       95.826      19.566    -193.931
  O       96.616      19.587    -192.730
  C       96.463      18.515    -194.824
  O       96.062      18.690    -196.167
  C       97.945      18.775    -194.582
  O       98.440      19.798    -195.461
  C       97.969      19.250    -193.111
  N       98.544      18.263    -192.212
  C       99.747      18.629    -191.594
  O      100.260      19.721    -191.842
  N      100.353      17.731    -190.749
  C       99.806      16.574    -190.544
  N      100.447      15.727    -189.691
  C       98.551      16.142    -191.192
  C       97.982      17.025    -192.010
  O       91.860      21.839    -192.150
  O       91.296      19.681    -193.423
  H       98.299      19.459    -196.368
  H       91.391      22.249    -192.901
  H       98.139      15.165    -190.985
  H       97.060      16.791    -192.528
  H       98.554      20.174    -193.018
  H       98.551      17.881    -194.763
  H       96.205      17.506    -194.477
  H       95.888      20.558    -194.400
  H      101.308      16.049    -189.270
  H       93.827      19.048    -194.514
  H      100.092      14.814    -189.450
  H       94.278      18.443    -192.905
  P       94.609      18.163    -196.586
  C       93.596      20.146    -197.859
  O       93.689      19.475    -196.618
  O       94.112      17.439    -195.243
  O       94.525      17.264    -197.773
  H       93.266      16.985    -195.405
  H       92.826      20.918    -197.785
  H       93.321      19.446    -198.654
  H       94.551      20.622    -198.098
  H       92.085      19.871    -189.017
  H       90.982      20.790    -190.014
  H       92.650      21.290    -189.866

 3  4  5  6  7  8  9  10  11  12  13  21  23  27  28  29  30  32 0
 6-311+G(2d,p)
 ****
 34  35 0
 6-311+G(2d,p)
 ****
 1  2  14  15  16  17  18  19  20  22  24  25  26 0
 3-21G
 ****
 31  33  36  37  38  39  40  41  42  43  44  45  46 0
 3-21G
 ****


