%nproc=1
%NoSave
%Mem=1900MB
#P OB98/GEN NMR

erre ene a

0 1
  C     -196.861     272.930      75.127
  O     -197.002     274.047      74.243
  P     -196.028     275.294      74.513
  C     -197.746     277.056      75.337
  O     -196.874     276.643      74.293
  C     -198.991     277.761      74.786
  O     -198.666     279.095      74.303
  C     -199.660     277.014      73.623
  O     -201.076     277.230      73.744
  C     -199.140     277.756      72.407
  O     -199.958     277.512      71.257
  C     -199.163     279.183      72.944
  N     -199.263     282.414      69.059
  C     -200.236     281.556      69.527
  N     -201.438     281.602      68.899
  N     -200.058     280.726      70.531
  C     -198.823     280.826      71.081
  C     -197.779     281.642      70.714
  C     -197.982     282.536      69.596
  O     -197.154     283.316      69.143
  N     -196.689     281.469      71.551
  C     -197.068     280.491      72.364
  N     -198.366     280.113      72.160
  O     -195.031     275.259      73.265
  O     -195.298     275.208      75.811
  H     -199.690     278.157      70.569
  H     -194.183     274.853      73.521
  H     -199.447     283.029      68.272
  H     -196.451     280.056      73.130
  H     -200.180     279.605      72.976
  H     -198.113     277.434      72.182
  H     -201.657     282.250      68.158
  H     -199.450     275.937      73.596
  H     -202.181     281.014      69.249
  H     -199.711     277.876      75.612
  H     -197.219     277.738      76.014
  H     -198.016     276.187      75.940
  P     -201.984     276.020      74.247
  C     -203.714     276.085      72.319
  O     -203.473     276.263      73.702
  O     -202.118     276.293      75.825
  O     -201.411     274.663      73.984
  H     -202.079     275.445      76.309
  H     -204.770     275.832      72.174
  H     -203.100     275.290      71.899
  H     -203.503     277.016      71.791
  H     -197.558     272.166      74.851
  H     -197.055     273.243      76.131
  H     -195.865     272.545      75.060

 3  4  5  6  7  8  9  10  11  12  23  26  30  31 0
 6-311+G(2d,p)
 ****
 33  35  36  37  38 0
 6-311+G(2d,p)
 ****
 1  2  13  14  15  16  17  18  19  20  21  22  24  25 0
 3-21G
 ****
 27  28  29  32  34  39  40  41  42  43  44  45  46  47  48  49 0
 3-21G
 ****


