%nproc=1
%NoSave
%Mem=1900MB
#P OB98/GEN NMR

erre ene a

0 1
  C     -187.310    -868.134    -165.186
  O     -188.603    -868.365    -165.723
  P     -188.829    -869.666    -166.640
  C     -188.407    -869.980    -169.216
  O     -187.975    -869.433    -167.980
  C     -187.437    -869.564    -170.334
  O     -187.511    -868.123    -170.524
  C     -185.963    -869.920    -170.067
  O     -185.383    -870.260    -171.334
  C     -185.391    -868.607    -169.555
  O     -183.982    -868.537    -169.699
  C     -186.173    -867.603    -170.407
  N     -186.199    -866.253    -169.842
  C     -185.421    -865.271    -170.462
  O     -184.698    -865.493    -171.438
  N     -185.466    -864.021    -169.896
  C     -186.159    -863.686    -168.755
  O     -186.153    -862.549    -168.284
  C     -186.926    -864.762    -168.120
  C     -186.917    -865.975    -168.687
  O     -190.348    -869.450    -167.103
  O     -188.561    -870.957    -165.934
  H     -190.578    -868.520    -167.240
  H     -183.585    -869.162    -169.068
  H     -184.940    -863.283    -170.341
  H     -187.464    -864.533    -167.222
  H     -187.473    -866.796    -168.237
  H     -185.753    -867.569    -171.425
  H     -185.634    -868.502    -168.485
  H     -185.857    -870.757    -169.363
  H     -187.787    -870.035    -171.277
  H     -189.406    -869.594    -169.446
  H     -188.468    -871.059    -169.130
  P     -183.887    -870.883    -171.332
  C     -181.512    -870.006    -170.669
  O     -182.894    -869.760    -170.759
  O     -183.578    -870.876    -172.911
  O     -183.778    -872.256    -170.729
  H     -183.792    -870.029    -173.331
  H     -180.986    -869.043    -170.590
  H     -181.130    -870.543    -171.533
  H     -181.303    -870.591    -169.764
  H     -187.321    -867.237    -164.603
  H     -186.605    -868.032    -165.985
  H     -187.029    -868.959    -164.565

 3  4  5  6  7  8  9  10  11  12  13  24  28  29  30  31  32 0
 6-311+G(2d,p)
 ****
 33  34 0
 6-311+G(2d,p)
 ****
 1  2  14  15  16  17  18  19  20  21  22  23  25  26  27 0
 3-21G
 ****
 35  36  37  38  39  40  41  42  43  44  45 0
 3-21G
 ****


