%nproc=1
%NoSave
%Mem=1900MB
#P OB98/GEN NMR

erre ene a

0 1
  C      295.034     167.329     521.678
  O      294.774     166.994     523.022
  H      294.783     168.385     521.529
  H      294.408     166.734     521.008
  H      296.089     167.181     521.436
  P      295.014     165.485     523.517
  C      297.156     165.771     524.903
  O      296.612     165.334     523.663
  C      297.731     164.600     525.700
  O      298.699     163.883     524.879
  C      298.438     165.019     526.997
  O      298.010     164.182     528.074
  C      299.908     164.755     526.703
  O      300.680     164.542     527.879
  C      299.801     163.558     525.747
  N      301.038     163.331     525.015
  C      302.016     162.578     525.674
  O      301.806     162.137     526.808
  N      303.228     162.381     525.059
  C      303.458     162.933     523.909
  N      304.689     162.723     523.369
  C      302.465     163.759     523.192
  C      301.289     163.915     523.795
  O      294.356     164.443     522.674
  O      294.517     165.468     525.038
  H      300.185     163.939     528.477
  H      294.301     164.540     525.292
  H      302.716     164.203     522.238
  H      300.498     164.506     523.348
  H      299.544     162.643     526.298
  H      300.332     165.617     526.175
  H      298.264     166.061     527.264
  H      296.918     163.889     525.905
  H      305.343     162.160     523.896
  H      296.366     166.275     525.473
  H      304.991     163.122     522.489
  H      297.958     166.488     524.692
  P      296.859     164.784     529.024
  C      295.037     163.282     527.944
  O      295.450     164.596     528.276
  O      297.122     166.368     528.965
  O      296.916     164.271     530.423
  H      297.463     166.675     529.824
  H      294.086     163.320     527.454
  H      294.955     162.698     528.837
  H      295.757     162.836     527.291

 6  7  8  9  10  11  12  13  14  15  16  26  30  31  32  33  35 0
 6-311+G(2d,p)
 ****
 37  38 0
 6-311+G(2d,p)
 ****
 1  2  3  4  5  17  18  19  20  21  22  23  24  25 0
 3-21G
 ****
 27  28  29  34  36  39  40  41  42  43  44  45  46 0
 3-21G
 ****


