%nproc=1
%NoSave
%Mem=1900MB
#P OB98/GEN NMR

erre ene a

0 1
  C     -554.319    -256.578    -716.891
  O     -555.164    -255.486    -716.512
  P     -556.716    -255.793    -716.248
  C     -557.795    -253.472    -716.735
  O     -557.434    -254.443    -715.759
  C     -558.661    -252.374    -716.107
  O     -559.886    -252.911    -715.540
  C     -557.983    -251.642    -714.952
  O     -557.112    -250.627    -715.439
  C     -559.175    -251.023    -714.256
  O     -559.597    -249.836    -714.954
  C     -560.242    -252.120    -714.390
  N     -562.991    -253.276    -710.221
  C     -563.145    -252.336    -711.182
  N     -562.362    -252.071    -712.241
  C     -561.333    -252.931    -712.296
  C     -561.043    -253.951    -711.398
  C     -561.927    -254.116    -710.323
  N     -561.764    -255.098    -709.364
  N     -559.892    -254.612    -711.764
  C     -559.503    -254.015    -712.877
  N     -560.333    -252.985    -713.226
  O     -556.682    -256.691    -714.913
  O     -557.399    -256.505    -717.366
  H     -559.842    -250.097    -715.856
  H     -557.400    -257.355    -714.948
  H     -564.018    -251.686    -711.068
  H     -558.635    -254.291    -713.456
  H     -561.238    -251.708    -714.566
  H     -558.960    -250.727    -713.227
  H     -557.469    -252.341    -714.289
  H     -558.935    -251.664    -716.902
  H     -558.336    -253.956    -717.555
  H     -562.465    -255.155    -708.627
  H     -560.985    -255.729    -709.436
  H     -556.886    -253.050    -717.172
  P     -555.563    -250.741    -715.033
  C     -554.939    -248.227    -714.759
  O     -554.882    -249.389    -715.556
  O     -555.006    -251.871    -716.018
  O     -555.319    -251.076    -713.600
  H     -554.274    -252.350    -715.585
  H     -554.185    -247.516    -715.115
  H     -554.736    -248.454    -713.709
  H     -555.928    -247.769    -714.847
  H     -553.319    -256.223    -717.032
  H     -554.677    -257.006    -717.804
  H     -554.329    -257.321    -716.121

 3  4  5  6  7  8  9  10  11  12  22  25  29  30  31  32 0
 6-311+G(2d,p)
 ****
 33  36  37 0
 6-311+G(2d,p)
 ****
 1  2  13  14  15  16  17  18  19  20  21  23  24  26 0
 3-21G
 ****
 27  28  34  35  38  39  40  41  42  43  44  45  46  47  48 0
 3-21G
 ****


