%nproc=1
%NoSave
%Mem=1900MB
#P OB98/GEN NMR

erre ene a

0 1
  C      -27.925     -97.855      65.556
  O      -28.825     -96.850      65.089
  P      -28.571     -95.327      65.519
  C      -28.522     -93.162      64.125
  O      -29.213     -94.375      64.399
  C      -28.815     -92.680      62.703
  O      -28.410     -93.650      61.718
  C      -30.291     -92.434      62.445
  O      -30.724     -91.238      63.070
  C      -30.331     -92.424      60.925
  O      -29.946     -91.140      60.407
  C      -29.263     -93.480      60.565
  N      -29.831     -94.747      60.130
  C      -29.444     -95.191      58.862
  O      -28.697     -94.504      58.165
  N      -29.927     -96.394      58.410
  C      -30.730     -97.087      59.157
  N      -31.174     -98.272      58.661
  C      -31.172     -96.649      60.495
  C      -30.696     -95.477      60.911
  O      -27.171     -94.992      65.914
  O      -29.580     -95.135      66.754
  H      -29.903     -91.243      59.436
  H      -29.203     -94.476      67.368
  H      -31.839     -97.265      61.080
  H      -30.972     -95.079      61.880
  H      -28.619     -93.109      59.757
  H      -31.334     -92.638      60.542
  H      -30.879     -93.281      62.824
  H      -28.248     -91.754      62.534
  H      -30.865     -98.545      57.735
  H      -27.448     -93.318      64.251
  H      -31.762     -98.905      59.184
  H      -28.820     -92.411      64.865
  P      -32.004     -91.320      64.030
  C      -32.265     -89.800      66.112
  O      -32.205     -89.882      64.702
  O      -31.483     -92.227      65.245
  O      -33.223     -91.912      63.400
  H      -32.217     -92.770      65.585
  H      -32.085     -88.763      66.409
  H      -31.509     -90.435      66.582
  H      -33.258     -90.097      66.456
  H      -28.232     -98.810      65.183
  H      -27.932     -97.871      66.626
  H      -26.936     -97.637      65.209

 3  4  5  6  7  8  9  10  11  12  13  23  27  28  29  30  32 0
 6-311+G(2d,p)
 ****
 34  35 0
 6-311+G(2d,p)
 ****
 1  2  14  15  16  17  18  19  20  21  22  24  25  26 0
 3-21G
 ****
 31  33  36  37  38  39  40  41  42  43  44  45  46 0
 3-21G
 ****


