%nproc=1
%NoSave
%Mem=1900MB
#P OB98/GEN NMR

erre ene a

0 1
  C     -899.220     201.523    -475.223
  O     -898.140     200.805    -475.791
  H     -899.650     202.180    -475.995
  H     -898.870     202.143    -474.392
  H     -900.000     200.838    -474.882
  P     -897.310     199.812    -474.855
  C     -896.600     198.451    -476.939
  O     -896.160     199.157    -475.782
  C     -895.630     197.315    -477.270
  O     -894.350     197.926    -477.623
  C     -895.400     196.368    -476.083
  O     -895.610     194.985    -476.398
  C     -894.000     196.763    -475.567
  O     -893.300     195.746    -474.889
  C     -893.320     197.287    -476.834
  N     -892.240     198.238    -476.574
  C     -890.970     197.701    -476.303
  O     -890.700     196.482    -476.303
  N     -889.980     198.598    -476.034
  C     -890.120     199.961    -475.993
  O     -889.200     200.730    -475.763
  C     -891.480     200.472    -476.255
  C     -892.460     199.603    -476.518
  O     -898.100     198.835    -474.054
  O     -896.470     200.801    -473.902
  H     -892.380     196.020    -474.823
  H     -896.890     200.830    -473.020
  H     -889.060     198.234    -475.862
  H     -891.630     201.534    -476.217
  H     -893.460     199.941    -476.730
  H     -892.900     196.474    -477.422
  H     -894.130     197.601    -474.852
  H     -896.120     196.555    -475.296
  H     -895.990     196.782    -478.149
  H     -896.650     199.158    -477.770
  H     -897.590     198.035    -476.741
  P     -896.970     194.207    -476.200
  C     -896.420     192.669    -478.244
  O     -896.830     192.759    -476.891
  O     -898.230     194.984    -476.496
  O     -896.970     193.865    -474.604
  H     -897.900     193.886    -474.325
  H     -896.381     191.641    -478.537
  H     -895.450     193.108    -478.353
  H     -897.119     193.190    -478.864

 6  7  8  9  10  11  12  13  14  15  16  26  31  32  33  34  35 0
 6-311+G(2d,p)
 ****
 36  37 0
 6-311+G(2d,p)
 ****
 1  2  3  4  5  17  18  19  20  21  22  23  24  25 0
 3-21G
 ****
 27  28  29  30  38  39  40  41  42  43  44  45 0
 3-21G
 ****


