%nproc=1
%NoSave
%Mem=1900MB
#P OB98/GEN NMR

erre ene a

0 1
  C      144.861     121.624     310.364
  O      144.548     122.756     311.149
  H      145.362     121.959     309.452
  H      143.940     121.104     310.087
  H      145.523     120.939     310.896
  P      144.141     122.537     312.682
  C      141.957     122.022     313.962
  O      142.538     122.421     312.730
  C      140.762     121.098     313.737
  O      139.747     121.788     312.967
  C      141.175     119.868     312.906
  O      140.376     118.728     313.196
  C      140.904     120.315     311.485
  O      140.749     119.229     310.575
  C      139.648     121.165     311.672
  N      137.851     122.286     307.038
  C      137.932     121.058     307.666
  N      137.499     119.982     306.966
  N      138.412     120.895     308.873
  C      138.875     122.046     309.432
  C      138.872     123.312     308.889
  C      138.299     123.482     307.569
  O      138.209     124.540     306.956
  N      139.447     124.224     309.747
  C      139.806     123.507     310.798
  N      139.468     122.179     310.654
  O      144.400     123.973     313.351
  O      144.877     121.452     313.406
  H      140.618     119.606     309.687
  H      144.563     123.877     314.307
  H      137.454     122.352     306.111
  H      140.299     123.896     311.673
  H      138.751     120.528     311.665
  H      141.768     120.908     311.139
  H      137.287     120.036     305.983
  H      142.227     119.613     313.057
  H      137.819     119.064     307.288
  H      140.301     120.819     314.689
  H      141.636     122.929     314.480
  H      142.710     121.532     314.590
  P      141.043     117.543     314.056
  C      141.972     115.160     313.454
  O      141.112     116.244     313.125
  O      139.931     117.186     315.147
  O      142.347     117.927     314.682
  H      140.180     117.536     316.011
  H      141.876     114.392     312.715
  H      141.702     114.769     314.413
  H      142.985     115.504     313.482

 6  7  8  9  10  11  12  13  14  15  26  29  33  34 0
 6-311+G(2d,p)
 ****
 36  38  39  40  41 0
 6-311+G(2d,p)
 ****
 1  2  3  4  5  16  17  18  19  20  21  22  23  24  25 0
 3-21G
 ****
 27  28  30  31  32  35  37  42  43  44  45  46  47 0
 3-21G
 ****
 48  49 0
 3-21G
 ****


