%nproc=1
%NoSave
%Mem=1900MB
#P OB98/GEN NMR

erre ene a

0 1
  C     -119.728      20.747    -124.119
  O     -119.768      19.691    -123.180
  H     -119.442      20.344    -125.093
  H     -118.976      21.481    -123.811
  H     -120.706      21.229    -124.207
  P     -120.457      19.994    -121.765
  C     -122.815      19.231    -122.528
  O     -121.728      19.017    -121.640
  C     -123.631      17.946    -122.691
  O     -122.856      17.000    -123.478
  C     -123.986      17.262    -121.362
  O     -125.310      16.727    -121.458
  C     -122.980      16.128    -121.268
  O     -123.444      15.049    -120.456
  C     -122.793      15.768    -122.739
  N     -120.668      11.330    -123.843
  C     -122.002      11.690    -123.781
  N     -122.907      10.721    -124.046
  N     -122.411      12.899    -123.485
  C     -121.393      13.771    -123.277
  C     -120.038      13.535    -123.302
  C     -119.598      12.188    -123.606
  O     -118.435      11.800    -123.650
  N     -119.328      14.674    -123.007
  C     -120.254      15.593    -122.800
  N     -121.519      15.098    -122.961
  O     -121.115      21.440    -121.984
  O     -119.536      19.986    -120.588
  H     -124.310      14.759    -120.821
  H     -120.687      22.090    -121.395
  H     -120.409      10.381    -124.061
  H     -120.064      16.623    -122.528
  H     -123.579      15.101    -123.110
  H     -122.043      16.501    -120.833
  H     -122.663       9.787    -124.329
  H     -123.929      17.937    -120.505
  H     -123.893      10.976    -124.045
  H     -124.535      18.176    -123.269
  H     -122.422      19.541    -123.501
  H     -123.456      20.028    -122.132
  P     -126.343      17.122    -120.295
  C     -127.475      19.354    -120.966
  O     -127.562      17.937    -120.954
  O     -125.547      18.237    -119.466
  O     -126.741      15.972    -119.422
  H     -125.261      17.870    -118.607
  H     -128.348      19.761    -121.431
  H     -126.606      19.653    -121.515
  H     -127.405      19.716    -119.961

 6  7  8  9  10  11  12  13  14  15  26  29  33  34 0
 6-311+G(2d,p)
 ****
 36  38  39  40  41 0
 6-311+G(2d,p)
 ****
 1  2  3  4  5  16  17  18  19  20  21  22  23  24  25 0
 3-21G
 ****
 27  28  30  31  32  35  37  42  43  44  45  46  47 0
 3-21G
 ****
 48  49 0
 3-21G
 ****


