%nproc=1
%NoSave
%Mem=1900MB
#P OB98/GEN NMR

erre ene a

0 1
  C      -22.384     130.314     165.696
  O      -20.955     130.429     165.691
  P      -20.000     129.393     164.927
  C      -18.076     130.899     164.100
  O      -18.483     129.897     165.028
  C      -17.283     132.016     164.786
  O      -18.097     132.685     165.769
  C      -16.042     131.552     165.535
  O      -14.986     131.253     164.641
  C      -15.787     132.746     166.450
  O      -15.079     133.787     165.756
  C      -17.221     133.196     166.794
  N      -17.640     132.762     168.120
  C      -17.178     133.520     169.200
  O      -16.407     134.464     169.016
  N      -17.579     133.170     170.467
  C      -18.313     132.117     170.643
  N      -18.686     131.825     171.918
  C      -18.747     131.240     169.540
  C      -18.380     131.620     168.318
  O      -20.443     129.071     163.536
  O      -20.013     128.071     165.833
  H      -14.699     134.368     166.443
  H      -19.897     127.291     165.260
  H      -19.335     130.355     169.733
  H      -18.664     131.038     167.451
  H      -17.302     134.289     166.742
  H      -15.192     132.483     167.329
  H      -16.284     130.674     166.146
  H      -17.012     132.754     164.018
  H      -18.377     132.450     172.652
  H      -18.975     131.324     163.640
  H      -19.256     131.030     172.165
  H      -17.470     130.430     163.318
  P      -14.545     129.732     164.410
  C      -13.981     129.947     161.915
  O      -13.477     129.712     163.217
  O      -15.661     128.747     164.282
  O      -13.640     129.402     165.693
  H      -13.736     128.457     165.914
  H      -13.165     130.303     161.282
  H      -14.776     130.700     161.931
  H      -14.372     129.014     161.503
  H      -22.804     131.115     166.268
  H      -22.665     129.378     166.132
  H      -22.749     130.363     164.691

 3  4  5  6  7  8  9  10  11  12  13  23  27  28  29  30  32 0
 6-311+G(2d,p)
 ****
 34  35 0
 6-311+G(2d,p)
 ****
 1  2  14  15  16  17  18  19  20  21  22  24  25  26 0
 3-21G
 ****
 31  33  36  37  38  39  40  41  42  43  44  45  46 0
 3-21G
 ****


