%nproc=1
%NoSave
%Mem=1900MB
#P OB98/GEN NMR

erre ene a

0 1
  C       -3.802     577.464     474.303
  O       -4.654     576.342     474.187
  H       -2.998     577.223     475.007
  H       -4.360     578.324     474.690
  H       -3.361     577.710     473.335
  P       -5.894     576.486     473.179
  C       -8.038     576.952     474.578
  O       -6.924     577.500     473.875
  C       -7.740     576.924     476.073
  O       -7.071     578.149     476.463
  C       -8.976     576.834     476.949
  O       -9.503     575.523     477.014
  C       -8.434     577.339     478.278
  O       -7.774     576.294     479.003
  C       -7.419     578.407     477.844
  N       -7.911     582.349     481.051
  C       -7.254     581.174     481.160
  N       -7.158     580.181     480.252
  C       -7.817     580.508     479.125
  C       -8.527     581.664     478.869
  C       -8.557     582.620     479.893
  N       -9.249     583.807     479.798
  N       -9.097     581.619     477.615
  C       -8.733     580.454     477.111
  N       -7.952     579.748     477.990
  O       -6.619     575.064     473.292
  O       -5.532     576.812     471.770
  H       -8.452     575.608     479.168
  H       -6.368     574.503     472.536
  H       -6.743     581.005     482.104
  H       -9.010     580.076     476.134
  H       -6.494     578.360     478.427
  H       -9.233     577.726     478.902
  H       -9.746     577.540     476.593
  H       -7.054     576.091     476.274
  H       -8.229     575.930     474.225
  H       -8.925     577.569     474.374
  H       -9.285     584.413     480.597
  H       -9.830     583.971     478.986
  P      -10.878     575.304     477.809
  C      -10.834     574.065     480.111
  O      -10.524     575.241     479.368
  O      -11.296     573.796     477.455
  O      -11.956     576.269     477.459
  H      -12.263     573.732     477.380
  H      -10.531     574.196     481.129
  H      -10.315     573.230     479.689
  H      -11.888     573.887     480.073

 6  7  8  9  10  11  12  13  14  15  25  28  32  33  34  35 0
 6-311+G(2d,p)
 ****
 36  37  40 0
 6-311+G(2d,p)
 ****
 1  2  3  4  5  16  17  18  19  20  21  22  23  24 0
 3-21G
 ****
 26  27  29  30  31  38  39 41  42  43  44  45  46  47  48 0
 3-21G
 ****


