%nproc=1
%NoSave
%Mem=1900MB
#P OB98/GEN NMR

erre ene a

0 1
  C     -405.836     330.653     -39.224
  O     -406.574     329.759     -40.032
  H     -406.483     331.029     -38.428
  H     -405.503     331.501     -39.832
  H     -404.972     330.158     -38.774
  P     -405.743     328.793     -41.005
  C     -404.117     326.795     -40.682
  O     -405.009     327.713     -40.067
  C     -404.164     325.446     -39.964
  O     -403.754     325.646     -38.577
  C     -405.552     324.786     -39.951
  O     -405.393     323.365     -40.072
  C     -406.053     325.090     -38.551
  O     -407.053     324.168     -38.118
  C     -404.753     325.007     -37.758
  N     -406.637     324.342     -33.151
  C     -406.485     323.449     -34.198
  N     -406.962     322.199     -34.016
  N     -405.915     323.760     -35.335
  C     -405.464     325.036     -35.377
  C     -405.554     326.014     -34.414
  C     -406.206     325.663     -33.168
  O     -406.387     326.411     -32.214
  N     -405.031     327.202     -34.867
  C     -404.641     326.945     -36.107
  N     -404.885     325.645     -36.458
  O     -404.549     329.738     -41.502
  O     -406.515     328.224     -42.148
  H     -407.835     324.281     -38.689
  H     -404.786     330.149     -42.355
  H     -407.100     324.054     -32.305
  H     -404.202     327.661     -36.785
  H     -404.437     323.972     -37.575
  H     -406.477     326.101     -38.510
  H     -407.386     321.878     -33.161
  H     -406.227     325.153     -40.734
  H     -406.824     321.525     -34.758
  H     -403.422     324.782     -40.422
  H     -403.098     327.191     -40.633
  H     -404.396     326.675     -41.734
  P     -406.036     322.640     -41.348
  C     -405.029     322.278     -43.721
  O     -404.852     322.162     -42.317
  O     -406.699     323.855     -42.156
  O     -407.043     321.596     -41.005
  H     -407.514     323.553     -42.595
  H     -404.154     321.919     -44.222
  H     -405.190     323.304     -43.977
  H     -405.876     321.698     -44.023

 6  7  8  9  10  11  12  13  14  15  26  29  33  34 0
 6-311+G(2d,p)
 ****
 36  38  39  40  41 0
 6-311+G(2d,p)
 ****
 1  2  3  4  5  16  17  18  19  20  21  22  23  24  25 0
 3-21G
 ****
 27  28  30  31  32  35  37  42  43  44  45  46  47 0
 3-21G
 ****
 48  49 0
 3-21G
 ****


