%nproc=1
%NoSave
%Mem=1900MB
#P OB98/GEN NMR

erre ene a

0 1
  C      451.361     328.274    -314.253
  O      450.713     328.718    -313.077
  H      452.047     329.055    -314.593
  H      450.615     328.100    -315.033
  H      451.930     327.357    -314.061
  P      449.897     327.628    -312.236
  C      447.579     328.774    -312.337
  O      448.673     328.396    -311.526
  C      446.874     330.001    -311.746
  O      446.367     329.656    -310.427
  C      447.786     331.229    -311.586
  O      447.043     332.403    -311.895
  C      448.142     331.213    -310.107
  O      448.488     332.513    -309.618
  C      446.872     330.642    -309.503
  N      445.150     330.299    -304.774
  C      444.602     330.918    -305.883
  N      443.411     331.534    -305.706
  N      445.161     330.913    -307.073
  C      446.325     330.217    -307.102
  C      446.980     329.574    -306.077
  C      446.356     329.610    -304.767
  O      446.814     329.102    -303.741
  N      448.152     329.015    -306.506
  C      448.215     329.321    -307.795
  N      447.119     330.047    -308.202
  O      450.883     327.294    -311.022
  O      449.517     326.393    -312.987
  H      448.588     332.443    -308.640
  H      451.168     326.361    -311.076
  H      444.683     330.342    -303.888
  H      449.019     329.049    -308.464
  H      446.089     331.406    -309.357
  H      448.991     330.544    -309.936
  H      442.899     331.537    -304.836
  H      448.677     331.181    -312.225
  H      442.975     331.965    -306.512
  H      446.001     330.236    -312.366
  H      446.872     327.947    -312.401
  H      447.937     329.010    -313.349
  P      447.029     332.871    -313.434
  C      447.810     335.316    -313.075
  O      446.754     334.464    -313.474
  O      445.670     332.238    -313.997
  O      448.216     332.414    -314.216
  H      445.874     331.499    -314.597
  H      447.493     336.335    -313.150
  H      448.656     335.158    -313.711
  H      448.080     335.100    -312.062

 6  7  8  9  10  11  12  13  14  15  26  29  33  34 0
 6-311+G(2d,p)
 ****
 36  38  39  40  41 0
 6-311+G(2d,p)
 ****
 1  2  3  4  5  16  17  18  19  20  21  22  23  24  25 0
 3-21G
 ****
 27  28  30  31  32  35  37  42  43  44  45  46  47 0
 3-21G
 ****
 48  49 0
 3-21G
 ****


