%nproc=1
%NoSave
%Mem=1900MB
#P OB98/GEN NMR

erre ene a

0 1
  C      190.367     -93.284      14.138
  O      189.927     -92.096      13.506
  P      189.632     -90.775      14.359
  C      187.111     -91.206      14.493
  O      188.313     -91.050      15.235
  C      185.959     -90.429      15.131
  O      185.566     -91.091      16.364
  C      186.286     -88.970      15.481
  O      185.080     -88.221      15.293
  C      186.611     -89.046      16.965
  O      186.491     -87.791      17.622
  C      185.601     -90.097      17.409
  N      185.746     -89.514      22.488
  C      185.371     -88.675      21.497
  N      185.387     -88.895      20.166
  C      185.843     -90.129      19.894
  C      186.290     -91.083      20.795
  C      186.214     -90.742      22.157
  N      186.557     -91.596      23.183
  N      186.738     -92.207      20.125
  C      186.563     -91.935      18.849
  N      185.965     -90.718      18.665
  O      189.605     -89.503      13.578
  O      190.798     -90.755      15.457
  H      186.761     -87.904      18.554
  H      191.453     -90.066      15.230
  H      185.006     -87.702      21.814
  H      186.849     -92.572      18.025
  H      184.592     -89.682      17.518
  H      187.641     -89.399      17.097
  H      187.103     -88.544      14.892
  H      185.098     -90.476      14.451
  H      186.859     -92.272      14.476
  H      186.338     -91.300      24.121
  H      186.652     -92.590      22.983
  H      187.265     -90.871      13.461
  P      185.137     -86.781      14.589
  C      184.914     -85.571      16.836
  O      185.715     -85.761      15.681
  O      183.880     -86.349      13.914
  O      186.349     -86.920      13.548
  H      186.292     -86.210      12.882
  H      184.115     -84.863      16.609
  H      185.535     -85.162      17.635
  H      184.478     -86.514      17.171
  H      190.507     -94.048      13.402
  H      189.633     -93.603      14.848
  H      191.293     -93.099      14.641

 3  4  5  6  7  8  9  10  11  12  22  25  29  30  31  32 0
 6-311+G(2d,p)
 ****
 33  36  37 0
 6-311+G(2d,p)
 ****
 1  2  13  14  15  16  17  18  19  20  21  23  24  26 0
 3-21G
 ****
 27  28  34  35  38  39  40  41  42  43  44  45  46  47  48 0
 3-21G
 ****


