%nproc=1
%NoSave
%Mem=1900MB
#P OB98/GEN NMR

erre ene a

0 1
  C      112.904     -73.008     -15.772
  O      112.851     -71.766     -15.098
  H      112.184     -73.690     -15.311
  H      113.904     -73.443     -15.690
  H      112.643     -72.876     -16.826
  P      113.918     -70.658     -15.564
  C      115.337     -71.613     -13.592
  O      115.303     -71.188     -14.947
  C      116.714     -72.181     -13.264
  O      116.969     -73.374     -14.037
  C      117.869     -71.236     -13.580
  O      118.043     -70.229     -12.598
  C      119.026     -72.218     -13.596
  O      119.379     -72.569     -12.244
  C      118.391     -73.418     -14.336
  N      118.616     -73.386     -15.782
  C      119.919     -73.649     -16.221
  O      120.818     -73.881     -15.412
  N      120.183     -73.608     -17.571
  C      119.230     -73.340     -18.408
  N      119.551     -73.299     -19.731
  C      117.841     -73.074     -17.990
  C      117.608     -73.112     -16.680
  O      113.583     -69.399     -14.634
  O      113.952     -70.354     -17.025
  H      119.736     -71.765     -11.827
  H      114.270     -68.699     -14.758
  H      117.083     -72.844     -18.726
  H      116.610     -72.924     -16.299
  H      118.776     -74.368     -13.942
  H      119.925     -71.814     -14.067
  H      117.769     -70.797     -14.578
  H      116.716     -72.473     -12.203
  H      120.522     -73.424     -19.982
  H      114.567     -72.379     -13.451
  H      118.924     -72.925     -20.432
  H      115.125     -70.768     -12.928
  P      118.108     -68.704     -13.098
  C      120.655     -68.928     -13.551
  O      119.379     -68.582     -14.070
  O      118.572     -67.913     -11.787
  O      116.825     -68.166     -13.653
  H      118.116     -67.054     -11.712
  H      121.397     -68.796     -14.311
  H      120.646     -69.950     -13.234
  H      120.883     -68.298     -12.717

 6  7  8  9  10  11  12  13  14  15  16  26  30  31  32  33  35 0
 6-311+G(2d,p)
 ****
 37  38 0
 6-311+G(2d,p)
 ****
 1  2  3  4  5  17  18  19  20  21  22  23  24  25 0
 3-21G
 ****
 27  28  29  34  36  39  40  41  42  43  44  45  46 0
 3-21G
 ****


