%nproc=1
%NoSave
%Mem=1900MB
#P OB98/GEN NMR

erre ene a

0 1
  C      241.085    -182.795    -893.150
  O      242.179    -183.696    -893.050
  P      242.113    -185.044    -893.930
  C      242.477    -184.305    -896.400
  O      243.067    -184.795    -895.200
  C      243.547    -184.049    -897.450
  O      244.153    -182.760    -897.230
  C      244.692    -185.048    -897.460
  O      244.357    -186.252    -898.130
  C      245.757    -184.282    -898.220
  O      245.527    -184.400    -899.630
  C      245.516    -182.819    -897.750
  N      250.014    -180.729    -896.790
  C      249.413    -181.010    -898.000
  N      250.086    -180.664    -899.120
  N      248.238    -181.588    -898.110
  C      247.656    -181.847    -896.920
  C      248.163    -181.610    -895.650
  C      249.488    -181.025    -895.550
  O      250.091    -180.797    -894.500
  N      247.275    -182.003    -894.680
  C      246.218    -182.432    -895.360
  N      246.420    -182.376    -896.710
  O      240.647    -184.979    -894.570
  O      242.337    -186.300    -893.170
  H      244.576    -184.240    -899.780
  H      240.324    -185.883    -894.780
  H      250.912    -180.261    -896.770
  H      245.301    -182.775    -894.900
  H      245.569    -182.118    -898.580
  H      246.781    -184.644    -898.020
  H      250.930    -180.090    -899.090
  H      245.041    -185.259    -896.430
  H      249.648    -180.816    -900.000
  H      243.054    -184.031    -898.440
  H      241.952    -183.364    -896.190
  H      241.751    -185.050    -896.740
  P      244.945    -187.624    -897.520
  C      242.762    -188.298    -896.290
  O      243.678    -188.582    -897.330
  O      245.364    -187.198    -896.040
  O      246.104    -188.187    -898.290
  H      246.085    -187.779    -895.710
  H      242.630    -187.221    -896.150
  H      243.117    -188.736    -895.350
  H      241.802    -188.735    -896.540
  H      241.260    -181.950    -892.517
  H      240.187    -183.289    -892.844
  H      240.984    -182.467    -894.164

 3  4  5  6  7  8  9  10  11  12  23  26  30  31  33  0
 6-311+G(2d,p)
 ****
 35  36  37  38 0
 6-311+G(2d,p)
 ****
 1  2  13  14  15  16  17  18  19  20  21  22  24  25  27  28  29 0
 3-21G
 ****
 32  34  39  40  41  42  43  44  45  46  47  48  49 0
 3-21G
 ****


