%nproc=1
%NoSave
%Mem=1900MB
#P OB98/GEN NMR

erre ene a

0 1
  C      108.519    -220.842      51.280
  O      107.608    -219.859      50.846
  H      108.245    -221.145      52.295
  H      109.534    -220.439      51.306
  H      108.480    -221.720      50.630
  P      107.799    -219.197      49.395
  C      107.110    -216.874      50.242
  O      106.786    -217.945      49.365
  C      105.850    -216.146      50.710
  O      105.140    -215.616      49.558
  C      104.870    -217.042      51.484
  O      104.438    -216.372      52.670
  C      103.697    -217.196      50.529
  O      102.474    -217.502      51.192
  C      103.741    -215.850      49.799
  N      102.961    -215.868      48.569
  C      101.764    -215.145      48.587
  O      101.425    -214.533      49.601
  N      100.956    -215.174      47.481
  C      101.289    -215.902      46.462
  N      100.429    -215.911      45.408
  C      102.529    -216.704      46.410
  C      103.312    -216.638      47.486
  O      107.662    -220.148      48.254
  O      109.232    -218.488      49.453
  H      102.247    -216.753      51.786
  H      109.569    -218.374      48.534
  H      102.758    -217.299      45.539
  H      104.243    -217.193      47.541
  H      103.365    -215.043      50.440
  H      103.911    -218.010      49.822
  H      105.295    -218.008      51.755
  H      106.153    -215.279      51.310
  H       99.588    -215.353      45.489
  H      107.779    -216.183      49.717
  H      100.569    -216.458      44.573
  H      107.629    -217.286      51.113
  P      104.525    -217.217      54.032
  C      102.989    -215.303      54.873
  O      103.928    -216.311      55.214
  O      106.096    -217.265      54.335
  O      103.944    -218.587      53.921
  H      106.430    -218.172      54.201
  H      102.683    -214.786      55.759
  H      102.136    -215.753      54.410
  H      103.440    -214.610      54.193

 6  7  8  9  10  11  12  13  14  15  16  26  30  31  32  33  35 0
 6-311+G(2d,p)
 ****
 37  38 0
 6-311+G(2d,p)
 ****
 1  2  3  4  5  17  18  19  20  21  22  23  24  25 0
 3-21G
 ****
 27  28  29  34  36  39  40  41  42  43  44  45  46 0
 3-21G
 ****


