%nproc=1
%NoSave
%Mem=1900MB
#P OB98/GEN NMR

erre ene a

0 1
  C     1120.039     144.676     493.578
  O     1121.321     144.349     493.083
  H     1120.115     145.091     494.591
  H     1119.593     145.421     492.922
  H     1119.396     143.793     493.594
  P     1122.195     143.335     493.973
  C     1122.255     144.999     495.955
  O     1123.000     144.233     495.023
  C     1123.056     145.198     497.247
  O     1123.203     143.952     497.942
  C     1124.472     145.720     497.028
  O     1124.490     147.129     496.770
  C     1125.100     145.375     498.362
  O     1124.745     146.388     499.340
  C     1124.440     144.042     498.717
  N     1128.254     141.044     500.384
  C     1127.656     142.133     500.931
  N     1126.660     142.880     500.423
  C     1126.257     142.404     499.239
  C     1126.770     141.316     498.557
  C     1127.821     140.611     499.176
  N     1128.454     139.518     498.613
  N     1126.103     141.114     497.370
  C     1125.204     142.076     497.324
  N     1125.257     142.885     498.423
  O     1123.326     142.834     492.963
  O     1121.434     142.192     494.557
  H     1125.144     147.224     499.034
  H     1123.528     141.891     493.150
  H     1128.036     142.436     501.899
  H     1124.487     142.212     496.518
  H     1124.136     144.005     499.774
  H     1126.196     145.346     498.337
  H     1124.991     145.163     496.215
  H     1122.476     145.879     497.890
  H     1121.318     144.473     496.199
  H     1129.053     138.951     499.190
  H     1128.105     139.189     497.719
  H     1121.999     145.966     495.504
  P     1124.989     147.618     495.327
  C     1127.517     147.071     495.561
  O     1126.516     148.086     495.528
  O     1124.195     148.982     495.128
  O     1124.744     146.660     494.206
  H     1124.099     149.182     494.155
  H     1128.478     147.522     495.699
  H     1127.506     146.530     494.638
  H     1127.318     146.400     496.370

 6  7  8  9  10  11  12  13  14  15  25  28  32  33  34  35 0
 6-311+G(2d,p)
 ****
 36  39  40 0
 6-311+G(2d,p)
 ****
 1  2  3  4  5  16  17  18  19  20  21  22  23  24 0
 3-21G
 ****
 26  27  29  30  31  37  38  41  42  43  44  45  46  47  48 0
 3-21G
 ****


