%nproc=1
%NoSave
%Mem=1900MB
#P OB98/GEN NMR

erre ene a

0 1
  C      -45.667      41.326     -31.028
  O      -46.810      41.491     -30.215
  H      -44.788      41.135     -30.407
  H      -45.824      40.470     -31.689
  H      -45.504      42.218     -31.639
  P      -46.761      42.697     -29.157
  C      -48.226      41.852     -27.198
  O      -48.156      42.668     -28.358
  C      -49.683      41.614     -26.813
  O      -50.442      42.804     -27.153
  C      -50.332      40.415     -27.525
  O      -50.983      39.560     -26.577
  C      -51.388      41.040     -28.417
  O      -52.550      40.231     -28.554
  C      -51.683      42.358     -27.712
  N      -55.958      44.708     -29.192
  C      -55.644      44.064     -28.047
  N      -54.457      43.544     -27.675
  C      -53.524      43.771     -28.616
  C      -53.688      44.433     -29.821
  C      -54.982      44.898     -30.109
  N      -55.316      45.505     -31.300
  N      -52.502      44.463     -30.530
  C      -51.648      43.793     -29.784
  N      -52.224      43.342     -28.626
  O      -46.881      44.000     -30.082
  O      -45.532      42.734     -28.315
  H      -53.214      40.756     -29.037
  H      -46.076      44.540     -29.968
  H      -56.457      43.943     -27.336
  H      -50.624      43.565     -30.053
  H      -52.395      42.227     -26.888
  H      -50.960      41.206     -29.413
  H      -49.613      39.831     -28.105
  H      -49.745      41.493     -25.725
  H      -47.715      42.351     -26.368
  H      -56.288      45.702     -31.470
  H      -54.619      45.548     -32.030
  H      -47.723      40.900     -27.400
  P      -50.026      38.593     -25.720
  C      -50.179      36.789     -27.582
  O      -50.292      37.081     -26.195
  O      -50.663      38.658     -24.253
  O      -48.595      39.016     -25.711
  H      -49.988      38.946     -23.609
  H      -50.382      35.751     -27.746
  H      -49.187      37.015     -27.914
  H      -50.882      37.381     -28.130

 6  7  8  9  10  11  12  13  14  15  25  28  32  33  34  35 0
 6-311+G(2d,p)
 ****
 36  39  40 0
 6-311+G(2d,p)
 ****
 1  2  3  4  5  16  17  18  19  20  21  22  23  24 0
 3-21G
 ****
 26  27  29  30  31  37  38  41  42  43  44  45  46  47  48 0
 3-21G
 ****


