%nproc=1
%NoSave
%Mem=1900MB
#P OB98/GEN NMR

erre ene a

0 1
  C       77.054    -762.947      40.221
  O       78.328    -762.728      40.795
  H       76.280    -762.476      40.831
  H       77.035    -762.491      39.223
  H       76.861    -764.016      40.125
  P       78.544    -763.308      42.280
  C       80.871    -764.292      41.700
  O       80.137    -763.402      42.519
  C       82.355    -763.991      41.785
  O       82.666    -762.913      40.854
  C       82.838    -763.555      43.187
  O       83.984    -764.318      43.595
  C       83.248    -762.097      43.003
  O       84.347    -761.729      43.825
  C       83.588    -762.035      41.528
  N       85.763    -757.418      41.535
  C       86.252    -758.640      41.814
  N       85.661    -759.846      41.706
  C       84.421    -759.700      41.206
  C       83.771    -758.532      40.850
  C       84.494    -757.334      41.054
  N       83.950    -756.095      40.818
  N       82.485    -758.778      40.391
  C       82.343    -760.076      40.504
  N       83.474    -760.686      41.003
  O       78.096    -764.842      42.137
  O       77.772    -762.609      43.337
  H       85.084    -762.346      43.631
  H       77.340    -765.003      42.738
  H       87.277    -758.663      42.197
  H       81.447    -760.642      40.284
  H       84.600    -762.404      41.325
  H       82.395    -761.441      43.247
  H       82.040    -763.655      43.945
  H       82.924    -764.870      41.452
  H       80.540    -764.179      40.654
  H       84.506    -755.285      41.101
  H       82.986    -756.005      40.572
  H       80.667    -765.323      42.018
  P       83.692    -765.590      44.530
  C       84.750    -767.369      42.951
  O       84.812    -766.690      44.209
  O       82.350    -766.197      43.900
  O       83.515    -765.256      45.986
  H       81.655    -766.264      44.594
  H       85.558    -768.068      42.883
  H       84.827    -766.656      42.157
  H       83.819    -767.891      42.873

 6  7  8  9  10  11  12  13  14  15  25  28  32  33  34  35 0
 6-311+G(2d,p)
 ****
 36  39  40 0
 6-311+G(2d,p)
 ****
 1  2  3  4  5  16  17  18  19  20  21  22  23  24 0
 3-21G
 ****
 26  27  29  30  31  37  38  41  42  43  44  45  46  47  48 0
 3-21G
 ****


