%nproc=1
%NoSave
%Mem=1900MB
#P OB98/GEN NMR

erre ene a

0 1
  C      462.949     143.817    -889.890
  O      464.304     143.454    -889.750
  H      462.670     144.465    -889.060
  H      462.321     142.921    -889.870
  H      462.780     144.354    -890.830
  P      465.066     142.805    -891.000
  C      467.016     144.504    -891.020
  O      465.892     143.990    -891.710
  C      467.480     145.831    -891.620
  O      468.208     145.578    -892.850
  C      466.276     146.702    -891.990
  O      466.579     148.097    -891.930
  C      466.017     146.315    -893.440
  O      465.277     147.305    -894.160
  C      467.430     146.100    -893.950
  N      467.160     145.535    -899.000
  C      466.874     146.640    -898.230
  N      466.444     147.746    -898.900
  N      466.992     146.676    -896.920
  C      467.369     145.485    -896.400
  C      467.654     144.303    -897.050
  C      467.558     144.294    -898.500
  O      467.772     143.337    -899.230
  N      467.974     143.302    -896.180
  C      467.872     143.864    -894.990
  N      467.527     145.192    -895.070
  O      463.900     142.516    -892.050
  O      465.860     141.570    -890.710
  H      465.718     148.167    -894.010
  H      464.156     141.800    -892.660
  H      467.069     145.568    -900.000
  H      468.059     143.363    -894.040
  H      467.883     147.047    -894.260
  H      465.411     145.402    -893.440
  H      466.175     147.710    -899.860
  H      465.408     146.500    -891.350
  H      465.961     148.452    -898.330
  H      468.177     146.339    -890.930
  H      467.816     143.764    -891.100
  H      466.780     144.625    -889.950
  P      465.956     148.944    -890.720
  C      468.225     149.381    -889.470
  O      466.945     148.789    -889.460
  O      464.649     148.104    -890.300
  O      465.631     150.350    -891.070
  H      463.848     148.565    -890.620
  H      468.725     149.165    -888.549
  H      468.127     150.440    -889.583
  H      468.794     148.986    -890.286

 6  7  8  9  10  11  12  13  14  15  26  29  33  34 0
 6-311+G(2d,p)
 ****
 36  38  39  40  41 0
 6-311+G(2d,p)
 ****
 1  2  3  4  5  16  17  18  19  20  21  22  23  24  25 0
 3-21G
 ****
 27  28  30  31  32  35  37  42  43  44  45  46  47 0
 3-21G
 ****
 48  49 0
 3-21G
 ****


