%nproc=1
%NoSave
%Mem=1900MB
#P OB98/GEN NMR

erre ene a

0 1
  C       71.883      99.857    -270.742
  O       71.221      99.228    -269.655
  P       70.781      97.686    -269.730
  C       68.428      98.202    -270.633
  O       69.695      97.622    -270.911
  C       67.477      97.977    -271.805
  O       67.908      98.811    -272.907
  C       67.440      96.556    -272.372
  O       66.571      95.672    -271.681
  C       66.882      96.824    -273.767
  O       65.457      97.015    -273.690
  C       67.575      98.134    -274.146
  N       69.444      96.937    -278.761
  C       68.177      97.104    -278.312
  N       67.760      97.403    -277.062
  C       68.814      97.582    -276.242
  C       70.155      97.448    -276.555
  C       70.461      97.112    -277.888
  N       71.753      96.963    -278.347
  N       70.942      97.685    -275.445
  C       70.084      97.964    -274.486
  N       68.787      97.924    -274.923
  O       70.358      97.098    -268.430
  O       72.049      96.945    -270.366
  H       65.301      97.711    -273.024
  H       71.985      95.985    -270.211
  H       67.389      96.971    -279.050
  H       70.355      98.199    -273.466
  H       66.924      98.806    -274.718
  H       67.059      95.992    -274.459
  H       68.449      96.136    -272.463
  H       66.473      98.304    -271.506
  H       68.568      99.279    -270.481
  H       71.878      96.849    -279.340
  H       72.510      97.250    -277.740
  H       68.024      97.774    -269.709
  P       66.902      94.097    -271.777
  C       65.126      93.574    -273.629
  O       66.488      93.658    -273.264
  O       66.320      93.277    -270.681
  O       68.501      94.073    -271.821
  H       68.902      94.455    -272.620
  H       65.060      93.421    -274.711
  H       64.594      94.496    -273.375
  H       64.653      92.725    -273.124
  H       72.088     100.877    -270.493
  H       71.258      99.820    -271.610
  H       72.802      99.347    -270.943

 3  4  5  6  7  8  9  10  11  12  22  25  29  30  31  32 0
 6-311+G(2d,p)
 ****
 33  36  37 0
 6-311+G(2d,p)
 ****
 1  2  13  14  15  16  17  18  19  20  21  23  24  26 0
 3-21G
 ****
 27  28  34  35  38  39  40  41  42  43  44  45  46  47  48 0
 3-21G
 ****


