%nproc=1
%NoSave
%Mem=1900MB
#P OB98/GEN NMR

erre ene a

0 1
  C       55.146     -57.680     100.262
  O       55.448     -57.573     101.639
  H       54.379     -58.442     100.108
  H       54.764     -56.717      99.912
  H       56.044     -57.932      99.690
  P       56.188     -58.825     102.316
  C       58.493     -59.147     101.158
  O       57.761     -58.517     102.199
  C       59.705     -58.299     100.769
  O       59.291     -57.320      99.778
  C       60.322     -57.536     101.946
  O       61.743     -57.537     101.804
  C       59.785     -56.125     101.774
  O       60.626     -55.150     102.378
  C       59.692     -56.020     100.255
  N       59.188     -51.318      98.329
  C       60.270     -52.098      98.536
  N       60.318     -53.345      99.050
  C       59.078     -53.795      99.315
  C       57.882     -53.116      99.159
  C       57.966     -51.810      98.647
  N       56.872     -50.994      98.468
  N       56.822     -53.900      99.578
  C       57.374     -55.029      99.978
  N       58.733     -55.011      99.842
  O       55.952     -59.986     101.234
  O       55.702     -59.214     103.670
  H       61.512     -55.208     101.962
  H       55.051     -60.347     101.338
  H       61.226     -51.660      98.259
  H       56.838     -55.879     100.379
  H       60.655     -55.762      99.791
  H       58.791     -56.050     102.231
  H       60.053     -57.963     102.914
  H       60.446     -58.945     100.283
  H       57.840     -59.272     100.288
  H       57.030     -50.053      98.148
  H       55.960     -51.322      98.756
  H       58.828     -60.134     101.498
  P       62.597     -58.018     103.075
  C       62.143     -60.562     102.871
  O       63.105     -59.519     102.813
  O       61.492     -58.185     104.221
  O       63.662     -57.051     103.480
  H       61.779     -57.722     105.031
  H       62.621     -61.499     102.678
  H       61.386     -60.390     102.135
  H       61.697     -60.583     103.844

 6  7  8  9  10  11  12  13  14  15  25  28  32  33  34  35 0
 6-311+G(2d,p)
 ****
 36  39  40 0
 6-311+G(2d,p)
 ****
 1  2  3  4  5  16  17  18  19  20  21  22  23  24 0
 3-21G
 ****
 26  27  29  30  31  37  38  41  42  43  44  45  46  47 0
 3-21G
 ****
 48 0
 3-21G
 ****


