%nproc=1
%NoSave
%Mem=1900MB
#P OB98/GEN NMR

erre ene a

0 1
  C     -892.500    -740.724    -890.930
  O     -892.480    -740.195    -892.240
  P     -891.770    -741.149    -893.320
  C     -894.000    -741.427    -894.630
  O     -892.930    -742.075    -894.010
  C     -894.890    -742.399    -895.450
  O     -894.190    -742.861    -896.640
  C     -895.350    -743.598    -894.640
  O     -896.630    -744.051    -895.060
  C     -894.290    -744.759    -895.110
  O     -894.820    -745.995    -894.810
  C     -894.160    -744.296    -896.580
  N     -893.000    -744.831    -897.170
  C     -893.170    -745.809    -898.270
  O     -894.300    -746.172    -898.550
  N     -892.050    -746.244    -898.930
  C     -890.860    -745.879    -898.530
  N     -889.810    -746.401    -899.220
  C     -890.650    -744.959    -897.360
  C     -891.700    -744.479    -896.780
  O     -890.910    -742.181    -892.450
  O     -890.910    -740.395    -894.290
  H     -895.230    -745.896    -893.770
  H     -890.010    -742.235    -892.810
  H     -889.630    -744.677    -897.090
  H     -891.700    -743.776    -895.920
  H     -895.090    -744.676    -897.180
  H     -893.300    -744.546    -894.550
  H     -895.330    -743.512    -893.550
  H     -895.810    -741.859    -895.770
  H     -890.020    -746.971    -900.000
  H     -893.650    -740.646    -895.330
  H     -888.840    -746.153    -898.980
  H     -894.600    -740.955    -893.870
  P     -897.900    -743.492    -894.130
  C     -899.100    -742.339    -896.120
  O     -898.360    -742.226    -894.960
  O     -897.130    -742.925    -892.900
  O     -898.940    -744.500    -893.840
  H     -897.800    -742.591    -892.260
  H     -899.510    -741.351    -896.470
  H     -900.000    -743.007    -895.920
  H     -898.550    -742.793    -896.920
  H     -892.987    -740.033    -890.274
  H     -891.497    -740.887    -890.596
  H     -893.032    -741.653    -890.928

 3  4  5  6  7  8  9  10  11  12  13  21  23  27  28  29  30  32 0
 6-311+G(2d,p)
 ****
 34  35 0
 6-311+G(2d,p)
 ****
 1  2  14  15  16  17  18  19  20  22  24  25  26 0
 3-21G
 ****
 31  33  36  37  38  39  40  41  42  43  44  45  46 0
 3-21G
 ****


