%nproc=1
%NoSave
%Mem=1900MB
#P OB98/GEN NMR

erre ene a

0 1
  C     -654.949    1374.148    -899.510
  O     -654.904    1374.338    -898.100
  H     -655.020    1375.113    -900.000
  H     -655.832    1373.534    -899.770
  H     -654.034    1373.638    -899.860
  P     -654.621    1373.045    -897.200
  C     -651.988    1373.059    -897.140
  O     -653.218    1373.292    -896.450
  C     -650.814    1373.514    -896.300
  O     -650.572    1374.939    -896.430
  C     -651.017    1373.315    -894.800
  O     -650.989    1371.949    -894.410
  C     -649.872    1374.154    -894.240
  O     -648.619    1373.440    -894.310
  C     -649.891    1375.369    -895.200
  N     -650.489    1376.542    -894.610
  C     -649.602    1377.607    -894.310
  O     -648.403    1377.476    -894.530
  N     -650.134    1378.724    -893.700
  C     -651.395    1378.821    -893.480
  N     -651.845    1379.961    -892.850
  C     -652.382    1377.756    -893.810
  C     -651.860    1376.664    -894.410
  O     -654.259    1371.906    -898.270
  O     -655.716    1372.677    -896.240
  H     -647.917    1374.068    -894.000
  H     -653.567    1372.176    -898.910
  H     -653.428    1377.902    -893.610
  H     -652.506    1375.818    -894.650
  H     -648.878    1375.621    -895.520
  H     -650.010    1374.416    -893.170
  H     -651.949    1373.775    -894.460
  H     -649.894    1372.996    -896.640
  H     -651.126    1380.673    -892.630
  H     -651.987    1373.563    -898.140
  H     -652.787    1380.133    -892.610
  H     -651.912    1371.963    -897.330
  P     -651.901    1371.395    -893.190
  C     -653.974    1370.999    -894.720
  O     -652.988    1370.371    -893.870
  O     -652.485    1372.468    -892.350
  O     -650.893    1370.364    -892.430
  H     -650.570    1369.639    -892.970
  H     -654.633    1370.253    -895.113
  H     -653.482    1371.501    -895.526
  H     -654.537    1371.707    -894.149

 6  7  8  9  10  11  12  13  14  15  16  26  30  31  32  33  35 0
 6-311+G(2d,p)
 ****
 37  38 0
 6-311+G(2d,p)
 ****
 1  2  3  4  5  17  18  19  20  21  22  23  24  25 0
 3-21G
 ****
 27  28  29  34  36  39  40  41  42  43  44  45  46 0
 3-21G
 ****


