%nproc=1
%NoSave
%Mem=1900MB
#P OB98/GEN NMR

erre ene a

0 1
  C      508.064     118.080    -118.596
  O      508.374     116.698    -118.768
  P      509.868     116.322    -119.217
  C      510.874     115.590    -116.902
  O      510.827     116.540    -117.951
  C      511.864     116.023    -115.804
  O      513.109     116.390    -116.444
  C      511.455     117.239    -114.992
  O      512.214     117.271    -113.781
  C      511.889     118.379    -115.887
  O      511.980     119.623    -115.175
  C      513.212     117.842    -116.481
  N      513.477     118.305    -117.859
  C      513.340     119.652    -118.153
  O      513.019     120.509    -117.333
  N      513.560     120.019    -119.445
  C      513.937     119.186    -120.468
  O      514.025     119.548    -121.634
  C      514.201     117.791    -120.076
  C      513.960     117.412    -118.817
  O      510.273     117.509    -120.225
  O      509.986     114.978    -119.852
  H      512.624     119.472    -114.450
  H      510.251     117.174    -121.145
  H      513.400     120.984    -119.693
  H      514.569     117.110    -120.838
  H      514.136     116.378    -118.519
  H      514.077     118.157    -115.865
  H      511.154     118.530    -116.685
  H      510.384     117.289    -114.761
  H      512.074     115.169    -115.160
  H      511.152     114.616    -117.305
  H      509.877     115.479    -116.460
  P      511.580     116.570    -112.480
  C      513.589     114.961    -112.395
  O      512.180     115.095    -112.420
  O      510.105     116.703    -112.327
  O      512.363     117.307    -111.278
  H      511.859     117.192    -110.458
  H      513.852     114.052    -111.852
  H      514.049     115.826    -111.902
  H      513.964     114.892    -113.420
  H      507.041     118.182    -118.298
  H      508.220     118.598    -119.519
  H      508.698     118.497    -117.842

 3  4  5  6  7  8  9  10  11  12  13  23  28  29  30  31  32 0
 6-311+G(2d,p)
 ****
 33  34 0
 6-311+G(2d,p)
 ****
 1  2  14  15  16  17  18  19  20  21  22  24  25  26  27 0
 3-21G
 ****
 35  36  37  38  39  40  41  42  43  44  45 0
 3-21G
 ****


