%nproc=1
%NoSave
%Mem=1900MB
#P OB98/GEN NMR

erre ene a

0 1
  C     1559.725    -236.419     250.400
  O     1558.747    -235.395     250.373
  H     1560.590    -236.059     250.967
  H     1560.039    -236.662     249.387
  H     1559.316    -237.305     250.902
  P     1557.397    -235.716     249.554
  C     1556.889    -235.740     247.021
  O     1557.742    -235.283     248.043
  C     1557.653    -235.940     245.713
  O     1558.518    -237.091     245.814
  C     1556.797    -236.145     244.492
  O     1556.353    -234.910     243.967
  C     1557.778    -236.834     243.536
  O     1558.620    -235.826     242.923
  C     1558.624    -237.694     244.497
  N     1559.668    -242.521     243.058
  C     1560.165    -241.333     242.638
  N     1559.804    -240.076     243.016
  C     1558.821    -240.138     243.955
  C     1558.234    -241.274     244.480
  C     1558.688    -242.505     244.004
  N     1558.176    -243.721     244.423
  N     1557.239    -240.943     245.384
  C     1557.297    -239.631     245.472
  N     1558.216    -239.088     244.596
  O     1556.143    -235.155     250.134
  O     1557.463    -237.312     249.474
  H     1559.129    -236.293     242.217
  H     1558.371    -237.611     249.294
  H     1560.968    -241.383     241.914
  H     1556.730    -239.019     246.170
  H     1559.685    -237.693     244.226
  H     1557.280    -237.376     242.736
  H     1555.952    -236.848     244.684
  H     1558.316    -235.065     245.582
  H     1556.061    -235.042     246.855
  H     1558.443    -244.534     243.895
  H     1557.341    -243.700     245.015
  H     1556.460    -236.712     247.347
  P     1555.133    -234.827     242.902
  C     1554.681    -235.917     240.621
  O     1555.589    -235.821     241.710
  O     1554.769    -233.446     242.501
  O     1553.939    -235.633     243.617
  H     1553.102    -235.414     243.148
  H     1555.071    -236.594     239.890
  H     1554.551    -234.951     240.179
  H     1553.738    -236.278     240.974

 6  7  8  9  10  11  12  13  14  15  25  28  32  33  34  35 0
 6-311+G(2d,p)
 ****
 36  39  40 0
 6-311+G(2d,p)
 ****
 1  2  3  4  5  16  17  18  19  20  21  22  23  24 0
 3-21G
 ****
 26  27  29  30  31  37  38  41  42  43  44  45  46  47 0
 3-21G
 ****
 48 0
 3-21G
 ****


