%nproc=1
%NoSave
%Mem=1900MB
#P OB98/GEN NMR

erre ene a

0 1
  C       18.307    -152.813    -272.968
  O       17.958    -151.438    -273.093
  P       16.441    -151.080    -273.493
  C       16.921    -149.756    -275.665
  O       16.485    -149.702    -274.321
  C       16.605    -148.447    -276.403
  O       17.206    -148.505    -277.730
  C       15.109    -148.164    -276.592
  O       14.938    -146.740    -276.542
  C       14.837    -148.646    -278.007
  O       13.662    -148.059    -278.559
  C       16.145    -148.241    -278.690
  N       14.211    -149.553    -283.246
  C       13.732    -148.766    -282.257
  N       14.303    -148.465    -281.063
  C       15.500    -149.070    -280.950
  C       16.106    -149.917    -281.862
  C       15.412    -150.165    -283.061
  N       15.905    -150.951    -284.075
  N       17.328    -150.365    -281.376
  C       17.455    -149.793    -280.194
  N       16.381    -148.980    -279.916
  O       15.800    -150.653    -272.087
  O       15.666    -152.187    -274.127
  H       13.731    -147.090    -278.453
  H       15.145    -151.319    -271.806
  H       12.750    -148.317    -282.440
  H       18.278    -149.933    -279.521
  H       16.172    -147.167    -278.932
  H       14.716    -149.735    -278.009
  H       14.467    -148.654    -275.850
  H       17.093    -147.626    -275.867
  H       16.394    -150.576    -276.174
  H       15.413    -150.967    -284.954
  H       16.881    -151.257    -284.028
  H       17.995    -149.967    -275.705
  P       14.157    -146.146    -275.272
  C       11.807    -146.533    -276.310
  O       12.749    -145.602    -275.802
  O       14.980    -144.818    -274.921
  O       14.098    -147.084    -274.100
  H       14.897    -144.619    -273.970
  H       10.797    -146.186    -276.085
  H       11.944    -147.531    -275.876
  H       11.931    -146.607    -277.396
  H       19.340    -152.896    -272.700
  H       18.140    -153.310    -273.901
  H       17.704    -153.267    -272.209

 3  4  5  6  7  8  9  10  11  12  22  25  29  30  31  32 0
 6-311+G(2d,p)
 ****
 33  36  37 0
 6-311+G(2d,p)
 ****
 1  2  13  14  15  16  17  18  19  20  21  23  24  26 0
 3-21G
 ****
 27  28  34  35  38  39  40  41  42  43  44  45  46  47  48 0
 3-21G
 ****


