%nproc=1
%NoSave
%Mem=1900MB
#P OB98/GEN NMR

erre ene a

0 1
  C     -261.120     727.043     771.736
  O     -260.909     725.647     771.716
  H     -262.120     727.253     772.102
  H     -261.017     727.469     770.732
  H     -260.394     727.532     772.410
  P     -259.517     725.137     771.102
  C     -258.338     725.573     773.382
  O     -258.415     725.893     772.008
  C     -257.087     724.716     773.643
  O     -255.901     725.398     773.179
  C     -256.835     724.396     775.135
  O     -257.656     723.389     775.638
  C     -255.378     723.963     775.054
  O     -255.308     722.634     774.493
  C     -254.810     725.015     774.083
  N     -254.269     726.210     774.766
  C     -253.417     727.030     774.007
  O     -253.142     726.732     772.835
  N     -252.858     728.122     774.617
  C     -253.127     728.412     775.845
  N     -252.550     729.524     776.371
  C     -254.040     727.586     776.680
  C     -254.568     726.523     776.074
  O     -259.423     725.913     769.708
  O     -259.351     723.652     771.003
  H     -255.751     722.051     775.111
  H     -258.531     725.788     769.304
  H     -254.241     727.847     777.702
  H     -255.247     725.876     776.619
  H     -253.990     724.586     773.444
  H     -254.887     723.922     776.030
  H     -256.890     725.310     775.754
  H     -257.185     723.789     773.068
  H     -251.892     730.035     775.806
  H     -259.244     725.020     773.674
  H     -252.607     729.721     777.379
  H     -258.260     726.483     773.986
  P     -258.323     723.616     777.100
  C     -260.810     723.674     776.245
  O     -259.713     724.395     776.850
  O     -257.379     724.760     777.730
  O     -258.411     722.403     777.953
  H     -257.290     724.640     778.696
  H     -261.654     724.325     776.147
  H     -261.072     722.840     776.862
  H     -260.516     723.324     775.278

 6  7  8  9  10  11  12  13  14  15  16  26  30  31  32  33  35 0
 6-311+G(2d,p)
 ****
 37  38 0
 6-311+G(2d,p)
 ****
 1  2  3  4  5  17  18  19  20  21  22  23  24  25 0
 3-21G
 ****
 27  28  29  34  36  39  40  41  42  43  44  45  46 0
 3-21G
 ****


