%nproc=1
%NoSave
%Mem=1900MB
#P OB98/GEN NMR

erre ene a

0 1
  C     -457.934      57.079    -319.273
  O     -459.257      57.267    -319.746
  H     -457.943      57.165    -318.182
  H     -457.280      57.849    -319.682
  H     -457.570      56.089    -319.548
  P     -459.457      57.197    -321.340
  C     -458.774      58.966    -323.114
  O     -459.393      58.722    -321.862
  C     -459.743      59.670    -324.056
  O     -460.365      60.783    -323.396
  C     -459.100      60.220    -325.327
  O     -458.963      59.200    -326.311
  C     -460.102      61.283    -325.733
  O     -461.237      60.713    -326.426
  C     -460.524      61.865    -324.367
  N     -460.094      66.883    -324.714
  C     -461.057      66.036    -325.225
  N     -462.024      66.599    -325.982
  N     -461.064      64.747    -325.023
  C     -460.026      64.313    -324.267
  C     -459.019      65.068    -323.697
  C     -459.029      66.489    -323.910
  O     -458.254      67.307    -323.424
  N     -458.151      64.266    -322.990
  C     -458.608      63.039    -323.170
  N     -459.731      63.014    -323.946
  O     -461.013      56.828    -321.502
  O     -458.582      56.233    -322.055
  H     -460.936      60.358    -327.273
  H     -461.128      56.306    -322.311
  H     -460.159      67.869    -324.899
  H     -458.163      62.141    -322.762
  H     -461.567      62.171    -324.354
  H     -459.657      62.019    -326.411
  H     -461.882      67.490    -326.441
  H     -458.123      60.678    -325.105
  H     -462.715      65.978    -326.386
  H     -460.523      58.948    -324.311
  H     -458.461      58.010    -323.548
  H     -457.877      59.582    -322.955
  P     -457.644      59.239    -327.247
  C     -456.327      61.121    -328.448
  O     -457.516      60.739    -327.768
  O     -458.111      58.431    -328.555
  O     -456.420      58.652    -326.625
  H     -457.321      58.162    -329.063
  H     -456.394      62.150    -328.732
  H     -456.206      60.516    -329.323
  H     -455.486      60.984    -327.801

 6  7  8  9  10  11  12  13  14  15  26  29  33  34 0
 6-311+G(2d,p)
 ****
 36  38  39  40  41 0
 6-311+G(2d,p)
 ****
 1  2  3  4  5  16  17  18  19  20  21  22  23  24  25 0
 3-21G
 ****
 27  28  30  31  32  35  37  42  43  44  45  46  47 0
 3-21G
 ****
 48  49 0
 3-21G
 ****


