%nproc=1
%NoSave
%Mem=1900MB
#P OB98/GEN NMR

erre ene a

0 1
  C     -109.567    -159.068     102.261
  O     -109.665    -159.968     103.359
  P     -108.859    -159.690     104.716
  C     -110.315    -161.505     105.818
  O     -108.990    -161.018     105.610
  C     -110.289    -162.974     106.237
  O     -109.866    -163.777     105.103
  C     -109.330    -163.261     107.390
  O     -109.899    -164.277     108.222
  C     -108.096    -163.837     106.717
  O     -107.362    -164.691     107.613
  C     -108.712    -164.546     105.507
  N     -106.977    -167.491     101.668
  C     -107.937    -167.700     102.596
  N     -108.328    -166.884     103.598
  C     -107.650    -165.725     103.563
  C     -106.646    -165.365     102.672
  C     -106.306    -166.313     101.688
  N     -105.336    -166.095     100.737
  N     -106.164    -164.103     102.962
  C     -106.877    -163.702     103.993
  N     -107.797    -164.640     104.382
  O     -109.229    -158.426     105.425
  O     -107.321    -159.699     104.280
  H     -106.672    -165.137     107.086
  H     -106.823    -159.016     104.774
  H     -108.462    -168.654     102.520
  H     -106.763    -162.750     104.497
  H     -109.052    -165.563     105.761
  H     -107.431    -163.024     106.406
  H     -109.104    -162.369     107.989
  H     -111.314    -163.285     106.493
  H     -110.867    -161.404     104.878
  H     -105.242    -166.780      99.999
  H     -104.959    -165.159     100.644
  H     -110.815    -160.889     106.579
  P     -110.258    -163.833     109.732
  C     -112.374    -165.196     110.399
  O     -110.967    -165.120     110.378
  O     -111.017    -162.541     109.770
  O     -108.800    -163.779     110.396
  H     -108.163    -164.367     109.921
  H     -112.667    -166.122     110.911
  H     -112.766    -165.229     109.378
  H     -112.801    -164.339     110.935
  H     -110.173    -159.423     101.454
  H     -108.548    -159.005     101.941
  H     -109.907    -158.099     102.563

 3  4  5  6  7  8  9  10  11  12  22  25  29  30  31  32 0
 6-311+G(2d,p)
 ****
 33  36  37 0
 6-311+G(2d,p)
 ****
 1  2  13  14  15  16  17  18  19  20  21  23  24  26 0
 3-21G
 ****
 27  28  34  35  38  39  40  41  42  43  44  45  46  47  48 0
 3-21G
 ****


