%nproc=1
%NoSave
%Mem=1900MB
#P OB98/GEN NMR

erre ene a

0 1
  C      160.303     319.931      10.881
  O      160.346     319.358       9.560
  P      159.155     318.381       9.098
  C      160.108     316.152      10.066
  O      159.061     317.112      10.074
  C      159.722     314.897      10.875
  O      160.731     313.857      10.687
  C      159.589     315.132      12.383
  O      158.560     314.246      12.858
  C      160.946     314.693      12.909
  O      160.943     314.390      14.293
  C      161.204     313.482      12.000
  N      162.609     313.066      11.948
  C      163.020     312.046      12.805
  O      162.299     311.518      13.645
  N      164.332     311.662      12.684
  C      165.260     312.205      11.842
  O      166.429     311.834      11.805
  C      164.775     313.296      10.982
  C      163.498     313.670      11.073
  O      159.760     317.740       7.760
  O      157.854     319.055       8.807
  H      160.349     313.627      14.430
  H      159.083     317.750       7.055
  H      164.639     310.913      13.282
  H      165.480     313.753      10.298
  H      163.115     314.461      10.438
  H      160.591     312.635      12.333
  H      161.675     315.495      12.743
  H      159.342     316.172      12.635
  H      158.785     314.504      10.459
  H      161.009     316.596      10.502
  H      160.331     315.878       9.027
  P      157.112     314.853      13.169
  C      157.387     315.405      15.712
  O      157.271     315.883      14.387
  O      156.404     313.580      13.847
  O      156.376     315.357      11.963
  H      156.974     313.149      14.504
  H      158.031     314.520      15.763
  H      156.396     315.159      16.100
  H      157.825     316.189      16.334
  H      161.162     320.551      11.029
  H      160.299     319.147      11.610
  H      159.416     320.520      10.986

 3  4  5  6  7  8  9  10  11  12  13  23  28  29  30  31  32 0
 6-311+G(2d,p)
 ****
 33  34 0
 6-311+G(2d,p)
 ****
 1  2  14  15  16  17  18  19  20  21  22  24  25  26 0
 3-21G
 ****
 27  35  36  37  38  39  40  41  42  43  44  45 0
 3-21G
 ****


