%nproc=1
%NoSave
%Mem=1900MB
#P OB98/GEN NMR

erre ene a

0 1
  C     -556.604    -385.639    -167.135
  O     -558.010    -385.468    -167.051
  P     -558.828    -386.121    -165.846
  C     -558.990    -384.040    -164.341
  O     -558.429    -385.341    -164.498
  C     -559.293    -383.769    -162.866
  O     -560.175    -384.790    -162.342
  C     -558.058    -383.797    -161.964
  O     -557.328    -382.586    -162.108
  C     -558.708    -383.983    -160.595
  O     -559.198    -382.745    -160.075
  C     -559.880    -384.926    -160.930
  N     -560.419    -388.557    -157.394
  C     -560.662    -387.239    -157.361
  N     -560.452    -386.317    -158.340
  C     -559.922    -386.904    -159.422
  C     -559.589    -388.230    -159.589
  C     -559.882    -389.102    -158.512
  N     -559.714    -390.465    -158.553
  N     -559.037    -388.447    -160.837
  C     -559.023    -387.258    -161.404
  N     -559.614    -386.305    -160.616
  O     -558.748    -387.607    -165.760
  O     -560.330    -385.643    -166.105
  H     -558.424    -382.244    -159.742
  H     -560.896    -386.434    -166.227
  H     -561.081    -386.851    -156.433
  H     -558.625    -387.047    -162.400
  H     -560.799    -384.634    -160.393
  H     -558.007    -384.398    -159.861
  H     -557.451    -384.655    -162.208
  H     -559.814    -382.823    -162.804
  H     -559.911    -383.989    -164.925
  H     -560.085    -390.996    -157.795
  H     -559.596    -390.914    -159.466
  H     -558.287    -383.295    -164.727
  P     -555.745    -382.600    -161.870
  C     -555.347    -383.455    -164.251
  O     -555.118    -383.675    -162.868
  O     -555.301    -382.724    -160.447
  O     -555.253    -381.212    -162.495
  H     -554.493    -380.873    -161.995
  H     -556.362    -383.746    -164.514
  H     -554.653    -384.065    -164.823
  H     -555.188    -382.391    -164.500
  H     -556.234    -385.134    -168.003
  H     -556.375    -386.682    -167.205
  H     -556.142    -385.231    -166.261

 3  4  5  6  7  8  9  10  11  12  22  25  29  30  31  32 0
 6-311+G(2d,p)
 ****
 33  36  37 0
 6-311+G(2d,p)
 ****
 1  2  13  14  15  16  17  18  19  20  21  23  24  26 0
 3-21G
 ****
 27  28  34  35  38  39  40  41  42  43  44  45  46  47  48 0
 3-21G
 ****


