%nproc=1
%NoSave
%Mem=1900MB
#P OB98/GEN NMR

erre ene a

0 1
  C      529.452     211.617    -487.400
  O      528.273     212.049    -488.044
  H      530.092     211.118    -488.137
  H      529.210     210.900    -486.611
  H      530.003     212.462    -486.979
  P      527.255     212.987    -487.240
  C      525.572     212.640    -485.320
  O      526.697     212.121    -486.013
  C      525.568     212.145    -483.875
  O      525.196     210.750    -483.826
  C      526.925     212.229    -483.188
  O      527.224     213.562    -482.815
  C      526.717     211.269    -482.029
  O      525.990     211.906    -480.963
  C      525.864     210.165    -482.693
  N      526.652     208.995    -483.094
  C      526.436     207.826    -482.376
  O      525.660     207.752    -481.427
  N      527.160     206.732    -482.787
  C      528.115     206.726    -483.760
  O      528.773     205.729    -484.047
  C      528.323     207.998    -484.457
  C      527.598     209.059    -484.102
  O      526.205     213.661    -488.061
  O      528.209     214.051    -486.522
  H      525.183     212.284    -481.366
  H      528.208     214.887    -487.023
  H      527.021     205.878    -482.268
  H      529.081     208.030    -485.233
  H      527.741     210.006    -484.603
  H      525.084     209.822    -482.007
  H      527.659     210.918    -481.599
  H      527.709     211.827    -483.841
  H      524.815     212.716    -483.319
  H      524.659     212.299    -485.820
  H      525.602     213.736    -485.353
  P      528.706     213.984    -482.382
  C      530.185     213.807    -480.303
  O      528.887     213.595    -480.836
  O      529.097     215.383    -482.720
  O      529.644     212.927    -483.135
  H      530.093     213.356    -483.890
  H      530.199     213.518    -479.273
  H      530.440     214.843    -480.386
  H      530.895     213.220    -480.848

 6  7  8  9  10  11  12  13  14  15  16  26  31  32  33  34  35 0
 6-311+G(2d,p)
 ****
 36  37 0
 6-311+G(2d,p)
 ****
 1  2  3  4  5  17  18  19  20  21  22  23  24  25 0
 3-21G
 ****
 27  28  29  30  38  39  40  41  42  43  44  45 0
 3-21G
 ****


