%nproc=1
%NoSave
%Mem=1900MB
#P OB98/GEN NMR

erre ene a

0 1
  C      187.553      43.220      68.629
  O      186.325      42.742      68.114
  H      187.428      43.424      69.697
  H      187.852      44.145      68.129
  H      188.332      42.463      68.508
  P      186.175      42.612      66.520
  C      187.734      40.556      66.400
  O      187.533      41.915      66.015
  C      187.436      39.609      65.234
  O      186.012      39.473      65.053
  C      187.963      40.099      63.894
  O      189.371      40.088      63.787
  C      187.125      39.307      62.903
  O      187.662      38.020      62.609
  C      185.786      39.155      63.665
  N      184.730      39.972      63.083
  C      183.578      39.292      62.698
  O      183.441      38.073      62.807
  N      182.594      40.060      62.136
  C      182.670      41.398      61.884
  O      181.767      42.019      61.336
  C      183.922      42.057      62.290
  C      184.879      41.327      62.863
  O      185.839      43.880      65.794
  O      185.086      41.457      66.334
  H      187.057      37.598      61.969
  H      184.710      41.464      65.421
  H      181.749      39.584      61.860
  H      184.018      43.119      62.100
  H      185.814      41.791      63.169
  H      185.453      38.109      63.638
  H      187.026      39.837      61.953
  H      187.665      41.149      63.778
  H      187.843      38.621      65.482
  H      187.047      40.337      67.225
  H      188.760      40.419      66.753
  P      190.185      41.053      62.808
  C      190.165      42.971      64.561
  O      189.868      42.574      63.225
  O      190.185      40.694      61.355
  O      191.691      40.858      63.353
  H      192.292      40.923      62.583
  H      189.904      44.000      64.694
  H      191.211      42.841      64.748
  H      189.603      42.370      65.245

 6  7  8  9  10  11  12  13  14  15  16  26  31  32  33  34  35 0
 6-311+G(2d,p)
 ****
 36  37 0
 6-311+G(2d,p)
 ****
 1  2  3  4  5  17  18  19  20  21  22  23  24  25 0
 3-21G
 ****
 27  28  29  30  38  39  40  41  42  43  44  45 0
 3-21G
 ****


