%nproc=1
%NoSave
%Mem=1900MB
#P OB98/GEN NMR

erre ene a

0 1
  C     1148.156    -462.515     184.880
  O     1146.988    -463.189     184.499
  H     1148.811    -463.213     185.422
  H     1147.925    -461.688     185.543
  H     1148.695    -462.148     184.007
  P     1145.829    -462.369     183.751
  C     1145.336    -464.016     181.821
  O     1145.900    -462.760     182.182
  C     1146.358    -465.139     182.117
  O     1146.648    -465.125     183.549
  C     1145.800    -466.524     181.727
  O     1146.677    -467.279     180.896
  C     1145.471    -467.158     183.086
  O     1145.499    -468.563     183.120
  C     1146.458    -466.466     184.053
  N     1146.017    -466.430     185.430
  C     1146.860    -467.000     186.384
  O     1147.940    -467.544     186.144
  N     1146.392    -466.952     187.674
  C     1145.212    -466.438     188.104
  O     1144.865    -466.438     189.271
  C     1144.380    -465.844     187.041
  C     1144.802    -465.889     185.764
  O     1145.800    -460.900     184.032
  O     1144.471    -463.087     184.218
  H     1146.375    -468.832     182.821
  H     1144.047    -462.531     184.905
  H     1147.002    -467.387     188.367
  H     1143.424    -465.407     187.350
  H     1144.197    -465.472     184.966
  H     1147.433    -466.968     184.015
  H     1144.454    -466.844     183.360
  H     1144.883    -466.444     181.142
  H     1147.291    -464.929     181.581
  H     1145.116    -463.982     180.762
  H     1144.420    -464.205     182.391
  P     1146.746    -467.092     179.288
  C     1149.360    -467.076     179.143
  O     1148.131    -466.392     178.944
  O     1145.505    -466.552     178.637
  O     1146.955    -468.625     178.769
  H     1146.483    -468.662     177.894
  H     1150.172    -466.442     178.855
  H     1149.374    -467.965     178.548
  H     1149.460    -467.336     180.176

 6  7  8  9  10  11  12  13  14  15  16  26  31  32  33  34  35 0
 6-311+G(2d,p)
 ****
 36  37 0
 6-311+G(2d,p)
 ****
 1  2  3  4  5  17  18  19  20  21  22  23  24  25 0
 3-21G
 ****
 27  28  29  30  38  39  40  41  42  43  44  45 0
 3-21G
 ****


