%nproc=1
%NoSave
%Mem=1900MB
#P OB98/GEN NMR

erre ene a

0 1
  C       64.179    -198.665     161.485
  O       65.331    -199.137     162.156
  H       63.888    -199.399     160.727
  H       64.384    -197.712     160.989
  H       63.350    -198.545     162.190
  P       66.005    -198.200     163.268
  C       66.847    -196.797     161.264
  O       67.164    -197.380     162.525
  C       68.079    -196.121     160.661
  O       67.745    -195.509     159.398
  C       68.663    -195.009     161.523
  O       69.375    -195.547     162.617
  C       69.507    -194.271     160.493
  O       70.742    -194.964     160.253
  C       68.591    -194.343     159.244
  N       67.782    -193.139     159.050
  C       68.297    -192.194     158.158
  O       69.378    -192.387     157.599
  N       67.577    -191.043     157.938
  C       66.431    -190.871     158.518
  N       65.766    -189.713     158.258
  C       65.837    -191.861     159.440
  C       66.564    -192.954     159.667
  O       66.440    -198.881     164.529
  O       64.895    -197.083     163.553
  H       70.501    -195.814     159.830
  H       64.342    -197.335     164.317
  H       64.874    -191.682     159.896
  H       66.199    -193.732     160.331
  H       69.187    -194.501     158.338
  H       69.764    -193.263     160.812
  H       67.869    -194.332     161.862
  H       68.829    -196.899     160.463
  H       66.204    -189.074     157.602
  H       66.061    -196.056     161.439
  H       64.803    -189.546     158.519
  H       66.457    -197.558     160.574
  P       69.188    -194.973     164.107
  C       71.129    -193.371     163.563
  O       70.596    -194.304     164.494
  O       68.660    -195.949     165.103
  O       68.246    -193.695     163.902
  H       67.304    -193.977     163.767
  H       72.062    -192.996     163.928
  H       70.443    -192.559     163.439
  H       71.283    -193.855     162.621

 6  7  8  9  10  11  12  13  14  15  16  26  30  31  32  33  35 0
 6-311+G(2d,p)
 ****
 37  38 0
 6-311+G(2d,p)
 ****
 1  2  3  4  5  17  18  19  20  21  22  23  24  25 0
 3-21G
 ****
 27  28  29  34  36  39  40  41  42  43  44  45  46 0
 3-21G
 ****


