%nproc=1
%NoSave
%Mem=1900MB
#P OB98/GEN NMR

erre ene a

0 1
  C      -49.749      21.282    -122.260
  O      -50.932      20.479    -122.216
  P      -51.324      19.718    -123.572
  C      -53.716      20.631    -124.006
  O      -52.346      20.650    -124.384
  C      -54.572      21.385    -125.027
  O      -54.290      20.985    -126.379
  C      -56.069      21.178    -124.830
  O      -56.538      22.002    -123.779
  C      -56.616      21.572    -126.195
  O      -56.789      23.001    -126.298
  C      -55.514      21.095    -127.152
  N      -57.977      18.855    -130.978
  C      -58.055      20.155    -130.513
  N      -58.892      20.979    -131.175
  N      -57.377      20.602    -129.488
  C      -56.576      19.668    -128.924
  C      -56.391      18.360    -129.311
  C      -57.151      17.876    -130.440
  O      -57.099      16.741    -130.904
  N      -55.452      17.733    -128.528
  C      -55.169      18.625    -127.595
  N      -55.774      19.837    -127.827
  O      -52.230      18.500    -123.063
  O      -50.142      19.236    -124.348
  H      -55.959      23.443    -126.043
  H      -51.749      17.659    -123.182
  H      -58.528      18.563    -131.764
  H      -54.516      18.454    -126.755
  H      -55.324      21.832    -127.945
  H      -57.598      21.132    -126.382
  H      -59.445      20.703    -131.971
  H      -56.279      20.119    -124.632
  H      -58.960      21.936    -130.855
  H      -54.332      22.453    -124.932
  H      -53.834      21.080    -123.018
  H      -54.041      19.587    -123.918
  P      -56.707      21.343    -122.327
  C      -59.298      21.245    -122.485
  O      -58.089      20.530    -122.325
  O      -57.001      22.607    -121.386
  O      -55.515      20.581    -121.850
  H      -56.478      22.527    -120.565
  H      -60.029      20.596    -122.975
  H      -59.161      22.146    -123.092
  H      -59.678      21.529    -121.499
  H      -49.591      21.737    -121.304
  H      -49.862      22.044    -123.003
  H      -48.909      20.666    -122.506

 3  4  5  6  7  8  9  10  11  12  23  26  30  31 0
 6-311+G(2d,p)
 ****
 33  35  36  37  38 0
 6-311+G(2d,p)
 ****
 1  2  13  14  15  16  17  18  19  20  21  22  24  25 0
 3-21G
 ****
 27  28  29  32  34  39  40  41  42  43  44  45  46  47  48  49 0
 3-21G
 ****


