%nproc=1
%NoSave
%Mem=1900MB
#P OB98/GEN NMR

erre ene a

0 1
  C      103.833     145.594    -153.678
  O      104.323     146.260    -154.825
  P      103.547     147.534    -155.401
  C      101.398     147.954    -156.751
  O      102.392     147.002    -156.380
  C      100.319     147.287    -157.603
  O      100.879     146.822    -158.850
  C       99.687     146.061    -156.955
  O       98.762     146.439    -155.954
  C       99.068     145.375    -158.167
  O       97.802     145.973    -158.496
  C      100.103     145.674    -159.263
  N      100.289     140.670    -160.233
  C       99.273     141.477    -159.864
  N       99.312     142.800    -159.585
  C      100.567     143.266    -159.698
  C      101.710     142.556    -160.033
  C      101.535     141.195    -160.335
  N      102.553     140.376    -160.771
  N      102.815     143.386    -160.012
  C      102.348     144.569    -159.664
  N      100.988     144.559    -159.528
  O      104.413     148.607    -155.973
  O      102.726     148.081    -154.140
  H       97.984     146.862    -158.851
  H      103.009     148.994    -153.941
  H       98.299     141.003    -159.789
  H      102.946     145.457    -159.516
  H       99.624     145.942    -160.214
  H       98.891     144.309    -158.005
  H      100.468     145.414    -156.537
  H       99.552     148.041    -157.834
  H      101.881     148.751    -157.320
  H      102.291     139.456    -161.097
  H      103.397     140.808    -161.138
  H      100.955     148.385    -155.846
  P       98.649     145.578    -154.607
  C       97.908     143.188    -154.049
  O       97.810     144.261    -154.966
  O       98.188     146.323    -153.398
  O      100.132     145.005    -154.403
  H      100.317     144.915    -153.450
  H       98.854     142.661    -154.202
  H       97.082     142.493    -154.232
  H       97.850     143.546    -153.018
  H      104.476     144.772    -153.441
  H      102.846     145.230    -153.871
  H      103.807     146.276    -152.854

 3  4  5  6  7  8  9  10  11  12  22  25  29  30  31  32 0
 6-311+G(2d,p)
 ****
 33  36  37 0
 6-311+G(2d,p)
 ****
 1  2  13  14  15  16  17  18  19  20  21  23  24  26 0
 3-21G
 ****
 27  28  34  35  38  39  40  41  42  43  44  45  46  47  48 0
 3-21G
 ****


