%nproc=1
%NoSave
%Mem=1900MB
#P OB98/GEN NMR

erre ene a

0 1
  C      207.944      -1.381    -200.044
  O      207.510      -0.930    -198.775
  P      206.720      -1.896    -197.770
  C      204.447      -3.099    -197.797
  O      205.299      -2.179    -198.462
  C      203.560      -3.856    -198.787
  O      204.395      -4.644    -199.682
  C      202.547      -4.811    -198.141
  O      201.387      -4.799    -198.980
  C      203.255      -6.152    -198.234
  O      202.367      -7.254    -198.102
  C      203.951      -6.015    -199.597
  N      205.051      -6.962    -199.745
  C      204.739      -8.203    -200.310
  O      203.569      -8.484    -200.582
  N      205.746      -9.116    -200.500
  C      206.940      -8.849    -200.067
  N      207.899      -9.789    -200.288
  C      207.283      -7.606    -199.355
  C      206.305      -6.710    -199.241
  O      206.647      -1.418    -196.359
  O      207.466      -3.303    -197.930
  H      202.844      -8.070    -198.364
  H      208.323      -3.295    -197.433
  H      208.276      -7.452    -198.961
  H      206.461      -5.767    -198.737
  H      203.234      -6.182    -200.414
  H      204.002      -6.229    -197.435
  H      202.287      -4.543    -197.115
  H      203.033      -3.116    -199.404
  H      207.621     -10.621    -200.795
  H      203.805      -2.536    -197.114
  H      208.873      -9.648    -200.065
  H      205.042      -3.795    -197.200
  P      199.993      -5.405    -198.480
  C      199.200      -7.552    -197.324
  O      200.318      -6.806    -197.778
  O      198.917      -5.458    -199.516
  O      199.569      -4.472    -197.248
  H      198.624      -4.607    -197.046
  H      199.511      -8.581    -197.132
  H      198.401      -7.554    -198.073
  H      198.824      -7.111    -196.396
  H      208.447      -0.585    -200.552
  H      207.098      -1.694    -200.620
  H      208.615      -2.205    -199.919

 3  4  5  6  7  8  9  10  11  12  13  23  27  28  29  30  32 0
 6-311+G(2d,p)
 ****
 34  35 0
 6-311+G(2d,p)
 ****
 1  2  14  15  16  17  18  19  20  21  22  24  25  26 0
 3-21G
 ****
 31  33  36  37  38  39  40  41  42  43  44  45  46 0
 3-21G
 ****


