%nproc=1
%NoSave
%Mem=1900MB
#P OB98/GEN NMR

erre ene a

0 1
  C     -346.711    -468.186    -898.720
  O     -347.499    -468.767    -897.700
  P     -348.844    -469.545    -898.140
  C     -350.332    -471.283    -896.880
  O     -349.011    -470.766    -897.110
  C     -350.346    -472.117    -895.620
  O     -349.774    -473.416    -895.840
  C     -349.531    -471.515    -894.460
  O     -350.237    -470.495    -893.770
  C     -349.352    -472.726    -893.540
  O     -350.547    -472.951    -892.780
  C     -349.172    -473.871    -894.590
  N     -344.727    -474.752    -892.340
  C     -345.995    -474.653    -891.780
  N     -346.077    -474.709    -890.450
  N     -347.081    -474.476    -892.490
  C     -346.857    -474.411    -893.830
  C     -345.625    -474.515    -894.480
  C     -344.437    -474.702    -893.710
  O     -343.285    -474.752    -894.100
  N     -345.792    -474.414    -895.850
  C     -347.109    -474.237    -896.020
  N     -347.750    -474.194    -894.820
  O     -348.416    -470.275    -899.510
  O     -350.050    -468.674    -898.320
  H     -350.570    -472.249    -892.100
  H     -349.211    -470.533    -900.000
  H     -343.934    -474.887    -891.750
  H     -347.587    -474.146    -896.970
  H     -349.691    -474.794    -894.280
  H     -348.536    -472.621    -892.850
  H     -345.250    -474.788    -889.840
  H     -348.544    -471.167    -894.790
  H     -346.992    -474.569    -890.000
  H     -351.409    -472.248    -895.290
  H     -350.632    -471.915    -897.730
  H     -351.031    -470.458    -896.820
  P     -349.448    -469.729    -892.600
  C     -350.412    -468.568    -890.470
  O     -350.591    -468.849    -891.830
  O     -348.605    -468.608    -893.410
  O     -348.585    -470.576    -891.770
  H     -347.823    -468.360    -892.910
  H     -351.132    -467.780    -890.180
  H     -349.381    -468.220    -890.260
  H     -350.631    -469.461    -889.870
  H     -345.859    -467.708    -898.284
  H     -347.293    -467.462    -899.251
  H     -346.385    -468.948    -899.397

 3  4  5  6  7  8  9  10  11  12  23  26  30  31 0
 6-311+G(2d,p)
 ****
 33  35  36  37  38 0
 6-311+G(2d,p)
 ****
 1  2  13  14  15  16  17  18  19  20  21  22  24  25 0
 3-21G
 ****
 27  28  29  32  34  39  40  41  42  43  44  45  46  47  48  49 0
 3-21G
 ****


