%nproc=1
%NoSave
%Mem=1900MB
#P OB98/GEN NMR

erre ene a

0 1
  C      -60.369     201.348    -336.608
  O      -61.541     202.098    -336.360
  H      -60.004     201.595    -337.610
  H      -60.591     200.278    -336.569
  H      -59.596     201.598    -335.878
  P      -62.242     201.905    -334.920
  C      -64.016     200.253    -335.870
  O      -62.921     200.446    -334.979
  C      -65.180     199.576    -335.141
  O      -64.859     198.178    -334.930
  C      -65.482     200.196    -333.768
  O      -66.900     200.314    -333.607
  C      -64.906     199.198    -332.779
  O      -65.564     199.255    -331.509
  C      -65.048     197.872    -333.538
  N      -64.082     196.877    -333.073
  C      -64.516     195.984    -332.089
  O      -65.665     196.064    -331.640
  N      -63.632     195.058    -331.591
  C      -62.405     195.057    -332.002
  N      -61.568     194.130    -331.458
  C      -61.884     196.012    -333.002
  C      -62.769     196.881    -333.499
  O      -63.486     202.909    -334.993
  O      -61.347     202.130    -333.744
  H      -65.503     200.181    -331.182
  H      -63.884     203.055    -334.099
  H      -60.846     195.988    -333.303
  H      -62.477     197.621    -334.238
  H      -66.061     197.461    -333.410
  H      -63.845     199.420    -332.614
  H      -65.028     201.177    -333.638
  H      -66.064     199.603    -335.791
  H      -61.958     193.498    -330.768
  H      -63.691     199.630    -336.704
  H      -60.588     194.060    -331.685
  H      -64.346     201.228    -336.249
  P      -67.534     201.742    -333.979
  C      -66.876     203.261    -331.981
  O      -66.599     202.877    -333.323
  O      -68.874     201.798    -333.108
  O      -67.790     201.921    -335.443
  H      -69.648     201.565    -333.657
  H      -66.183     204.017    -331.676
  H      -66.780     202.410    -331.340
  H      -67.873     203.645    -331.918

 6  7  8  9  10  11  12  13  14  15  16  26  30  31  32  33  35 0
 6-311+G(2d,p)
 ****
 37  38 0
 6-311+G(2d,p)
 ****
 1  2  3  4  5  17  18  19  20  21  22  23  24  25 0
 3-21G
 ****
 27  28  29  34  36  39  40  41  42  43  44  45  46 0
 3-21G
 ****


