%nproc=1
%NoSave
%Mem=1900MB
#P OB98/GEN NMR

erre ene a

0 1
  C     -175.743     197.418     -55.314
  O     -175.836     198.331     -56.397
  P     -175.902     197.821     -57.924
  C     -174.127     197.110     -59.671
  O     -174.374     197.592     -58.358
  C     -172.638     196.782     -59.845
  O     -172.205     195.990     -58.709
  C     -172.316     195.982     -61.120
  O     -171.033     196.424     -61.575
  C     -172.240     194.552     -60.614
  O     -171.491     193.712     -61.467
  C     -171.624     194.768     -59.228
  N     -171.876     193.651     -58.322
  C     -170.971     192.593     -58.343
  O     -170.008     192.583     -59.114
  N     -171.171     191.538     -57.477
  C     -172.226     191.506     -56.727
  N     -172.349     190.473     -55.846
  C     -173.269     192.560     -56.758
  C     -173.015     193.599     -57.549
  O     -176.683     198.696     -58.841
  O     -176.447     196.324     -57.822
  H     -171.476     192.815     -61.084
  H     -177.434     196.277     -57.788
  H     -174.141     192.478     -56.130
  H     -173.708     194.428     -57.614
  H     -170.547     194.943     -59.312
  H     -173.252     194.140     -60.530
  H     -173.054     196.130     -61.911
  H     -172.074     197.718     -59.826
  H     -171.539     189.871     -55.735
  H     -174.401     197.896     -60.380
  H     -172.949     190.547     -55.035
  H     -174.751     196.233     -59.865
  P     -170.634     196.146     -63.112
  C     -169.905     194.088     -64.518
  O     -170.157     194.622     -63.235
  O     -169.247     196.943     -63.239
  O     -171.597     196.641     -64.146
  H     -169.105     197.190     -64.172
  H     -169.587     193.045     -64.409
  H     -169.108     194.643     -65.016
  H     -170.818     194.112     -65.129
  H     -175.712     197.960     -54.392
  H     -174.852     196.834     -55.415
  H     -176.595     196.771     -55.319

 3  4  5  6  7  8  9  10  11  12  13  23  27  28  29  30  32 0
 6-311+G(2d,p)
 ****
 34  35 0
 6-311+G(2d,p)
 ****
 1  2  14  15  16  17  18  19  20  21  22  24  25  26 0
 3-21G
 ****
 31  33  36  37  38  39  40  41  42  43  44  45  46 0
 3-21G
 ****


