%nproc=1
%NoSave
%Mem=1900MB
#P OB98/GEN NMR

erre ene a

0 1
  C       28.688    -139.488     132.825
  O       29.173    -140.697     133.417
  P       29.739    -141.832     132.430
  C       28.596    -143.740     131.034
  O       28.460    -142.698     131.996
  C       27.222    -144.271     130.637
  O       26.547    -144.856     131.779
  C       26.270    -143.206     130.108
  O       26.615    -142.809     128.788
  C       24.930    -143.924     130.233
  O       24.739    -144.821     129.125
  C       25.122    -144.734     131.537
  N       24.440    -144.143     132.684
  C       23.550    -144.983     133.354
  O       23.325    -146.145     133.004
  N       22.914    -144.435     134.434
  C       23.045    -143.150     134.882
  O       22.455    -142.721     135.863
  C       23.961    -142.299     134.101
  C       24.605    -142.823     133.054
  O       30.528    -142.768     133.452
  O       30.557    -141.277     131.314
  H       30.103    -142.828     134.327
  H       23.883    -145.268     129.277
  H       22.276    -145.031     134.938
  H       24.073    -141.265     134.413
  H       25.283    -142.211     132.468
  H       24.748    -145.754     131.407
  H       24.080    -143.231     130.246
  H       26.286    -142.333     130.771
  H       27.365    -145.057     129.882
  H       29.189    -144.555     131.457
  H       29.137    -143.348     130.168
  P       27.177    -141.313     128.604
  C       26.051    -138.961     128.356
  O       25.891    -140.356     128.506
  O       27.731    -141.375     127.097
  O       28.195    -140.922     129.623
  H       27.121    -141.828     126.485
  H       25.120    -138.544     127.964
  H       26.862    -138.721     127.668
  H       26.255    -138.515     129.335
  H       28.345    -138.827     133.593
  H       27.879    -139.715     132.162
  H       29.477    -139.018     132.277

 3  4  5  6  7  8  9  10  11  12  13  24  28  29  30  31  32 0
 6-311+G(2d,p)
 ****
 33  34 0
 6-311+G(2d,p)
 ****
 1  2  14  15  16  17  18  19  20  21  22  23  25  26  27 0
 3-21G
 ****
 35  36  37  38  39  40  41  42  43  44  45 0
 3-21G
 ****


