%nproc=1
%NoSave
%Mem=1900MB
#P OB98/GEN NMR

erre ene a

0 1
  C      163.778     -71.694    -283.336
  O      165.074     -71.776    -283.904
  P      165.997     -70.462    -283.838
  C      168.089     -71.642    -282.849
  O      167.515     -70.968    -283.963
  C      169.477     -72.194    -283.185
  O      169.351     -73.174    -284.243
  C      170.477     -71.130    -283.640
  O      171.759     -71.483    -283.120
  C      170.498     -71.287    -285.148
  O      171.719     -70.809    -285.712
  C      170.264     -72.800    -285.294
  N      169.740     -73.152    -286.610
  C      170.563     -72.890    -287.710
  O      171.639     -72.316    -287.551
  N      170.125     -73.239    -288.963
  C      168.925     -73.709    -289.116
  N      168.535     -74.041    -290.378
  C      167.976     -73.884    -287.995
  C      168.456     -73.609    -286.783
  O      165.878     -70.017    -282.307
  O      165.596     -69.372    -284.777
  H      171.621     -70.812    -286.691
  H      165.939     -69.048    -282.218
  H      166.977     -74.244    -288.182
  H      167.838     -73.731    -285.900
  H      171.198     -73.352    -285.135
  H      169.668     -70.726    -285.594
  H      170.206     -70.123    -283.308
  H      169.858     -72.720    -282.299
  H      169.198     -73.900    -291.129
  H      167.445     -72.485    -282.573
  H      167.620     -74.415    -290.592
  H      168.139     -70.958    -281.995
  P      172.675     -70.303    -282.530
  C      173.166     -71.729    -280.452
  O      173.713     -71.035    -281.552
  O      171.672     -69.619    -281.476
  O      173.229     -69.296    -283.478
  H      172.095     -68.833    -281.086
  H      173.962     -72.288    -279.954
  H      172.394     -72.433    -280.785
  H      172.735     -71.019    -279.736
  H      163.279     -72.633    -283.450
  H      163.218     -70.930    -283.833
  H      163.859     -71.457    -282.296

 3  4  5  6  7  8  9  10  11  12  13  21  23  27  28  29  30  32 0
 6-311+G(2d,p)
 ****
 34  35 0
 6-311+G(2d,p)
 ****
 1  2  14  15  16  17  18  19  20  22  24  25  26 0
 3-21G
 ****
 31  33  36  37  38  39  40  41  42  43  44  45  46 0
 3-21G
 ****


