%nproc=1
%NoSave
%Mem=1900MB
#P OB98/GEN NMR

erre ene a

0 1
  C     -113.896     278.286    -528.968
  O     -115.072     277.503    -529.036
  H     -113.242     277.868    -528.198
  H     -114.143     279.317    -528.698
  H     -113.373     278.267    -529.928
  P     -116.167     277.944    -530.125
  C     -114.876     276.527    -531.887
  O     -115.465     277.779    -531.559
  C     -114.935     276.307    -533.392
  O     -116.277     275.924    -533.783
  C     -114.619     277.553    -534.211
  O     -113.227     277.809    -534.289
  C     -115.241     277.193    -535.551
  O     -114.363     276.378    -536.340
  C     -116.482     276.392    -535.136
  N     -119.139     279.639    -538.047
  C     -118.000     278.946    -538.272
  N     -117.359     278.091    -537.450
  C     -118.033     277.955    -536.292
  C     -119.205     278.590    -535.922
  C     -119.771     279.469    -536.861
  N     -120.921     280.193    -536.624
  N     -119.571     278.226    -534.640
  C     -118.641     277.381    -534.248
  N     -117.695     277.184    -535.215
  O     -116.260     279.528    -529.923
  O     -117.498     277.284    -529.988
  H     -113.572     276.925    -536.520
  H     -117.047     279.743    -529.387
  H     -117.535     279.110    -539.242
  H     -118.607     276.897    -533.279
  H     -116.633     275.504    -535.767
  H     -115.472     278.091    -536.128
  H     -115.146     278.419    -533.797
  H     -114.259     275.484    -533.655
  H     -115.426     275.726    -531.381
  H     -113.839     276.520    -531.534
  H     -121.226     280.853    -537.315
  H     -121.336     280.158    -535.701
  P     -112.759     279.311    -534.583
  C     -112.914     279.857    -532.034
  O     -113.271     280.219    -533.360
  O     -113.682     279.767    -535.806
  O     -111.307     279.466    -534.895
  H     -113.179     280.359    -536.403
  H     -113.333     280.562    -531.347
  H     -111.848     279.857    -531.939
  H     -113.291     278.879    -531.817

 6  7  8  9  10  11  12  13  14  15  25  28  32  33  34  35 0
 6-311+G(2d,p)
 ****
 36  37  40 0
 6-311+G(2d,p)
 ****
 1  2  3  4  5  16  17  18  19  20  21  22  23  24 0
 3-21G
 ****
 26  27  29  30  31  38  39 41  42  43  44  45  46  47  48 0
 3-21G
 ****


