%nproc=1
%NoSave
%Mem=1900MB
#P OB98/GEN NMR

erre ene a

0 1
  C       -0.630       0.590     -37.825
  O       -0.288      -0.403     -38.774
  P        1.227      -0.548     -39.270
  C        0.947       0.374     -41.688
  O        1.463       0.574     -40.390
  C        1.510       1.406     -42.673
  O        1.047       2.715     -42.259
  C        3.032       1.494     -42.709
  O        3.421       2.151     -43.917
  C        3.319       2.392     -41.527
  O        4.609       2.992     -41.606
  C        2.125       3.380     -41.558
  N        1.697       3.755     -40.198
  C        2.131       4.988     -39.720
  O        2.775       5.782     -40.404
  N        1.874       5.241     -38.400
  C        1.281       4.373     -37.532
  O        1.335       4.482     -36.313
  C        0.637       3.201     -38.147
  C        0.893       2.934     -39.430
  O        1.199      -1.915     -40.100
  O        2.245      -0.579     -38.182
  H        5.230       2.292     -41.914
  H        1.501      -2.655     -39.540
  H        2.314       6.070     -38.018
  H        0.030       2.565     -37.518
  H        0.475       2.047     -39.897
  H        2.381       4.300     -42.098
  H        3.288       1.795     -40.607
  H        3.540       0.529     -42.622
  H        1.110       1.208     -43.675
  H       -0.145       0.428     -41.654
  H        1.196      -0.631     -42.045
  P        4.672       1.557     -44.725
  C        6.223       3.169     -43.466
  O        5.964       1.824     -43.815
  O        4.790       1.981     -46.151
  O        4.468      -0.028     -44.591
  H        4.986      -0.485     -45.278
  H        6.739       3.190     -42.502
  H        5.299       3.748     -43.386
  H        6.869       3.619     -44.224
  H       -1.678       0.537     -37.615
  H       -0.393       1.556     -38.219
  H       -0.077       0.427     -36.923

 3  4  5  6  7  8  9  10  11  12  13  23  28  29  30  31  32 0
 6-311+G(2d,p)
 ****
 33  34 0
 6-311+G(2d,p)
 ****
 1  2  14  15  16  17  18  19  20  21  22  24  25  26  27 0
 3-21G
 ****
 35  36  37  38  39  40  41  42  43  44  45 0
 3-21G
 ****


