%nproc=1
%NoSave
%Mem=1900MB
#P OB98/GEN NMR

erre ene a

0 1
  C      778.629    -341.402    -897.790
  O      779.859    -341.438    -898.540
  P      780.759    -340.139    -898.640
  C      781.797    -340.215    -896.240
  O      780.997    -339.489    -897.170
  C      782.152    -339.341    -895.030
  O      783.129    -338.319    -895.400
  C      780.941    -338.594    -894.380
  O      781.232    -338.490    -892.990
  C      781.059    -337.216    -895.040
  O      780.350    -336.213    -894.300
  C      782.558    -337.016    -895.070
  N      783.040    -335.989    -896.010
  C      783.053    -334.686    -895.580
  O      782.616    -334.295    -894.480
  N      783.515    -333.761    -896.470
  C      783.925    -334.004    -897.760
  O      784.312    -333.150    -898.520
  C      783.881    -335.430    -898.170
  C      783.408    -336.325    -897.280
  O      779.724    -339.054    -899.280
  O      781.986    -340.244    -899.490
  H      780.854    -336.109    -893.460
  H      780.165    -338.560    -900.000
  H      783.515    -332.794    -896.170
  H      784.205    -335.685    -899.170
  H      783.398    -337.390    -897.580
  H      782.935    -336.796    -894.060
  H      780.604    -337.267    -896.050
  H      780.006    -339.099    -894.570
  H      782.665    -339.986    -894.260
  H      782.719    -340.527    -896.750
  H      781.254    -341.123    -895.930
  P      780.138    -339.128    -891.940
  C      781.755    -340.356    -890.310
  O      780.794    -340.432    -891.340
  O      779.056    -339.703    -892.990
  O      779.567    -338.113    -890.990
  H      779.478    -340.172    -893.730
  H      781.483    -339.582    -889.560
  H      782.731    -340.129    -890.760
  H      781.816    -341.308    -889.790
  H      778.157    -342.362    -897.832
  H      777.977    -340.665    -898.210
  H      778.840    -341.152    -896.771

 3  4  5  6  7  8  9  10  11  12  13  23  28  29  30  31  32 0
 6-311+G(2d,p)
 ****
 33  34 0
 6-311+G(2d,p)
 ****
 1  2  14  15  16  17  18  19  20  21  22  24  25  26 0
 3-21G
 ****
 27  35  36  37  38  39  40  41  42  43  44  45 0
 3-21G
 ****


