%nproc=1
%NoSave
%Mem=1900MB
#P OB98/GEN NMR

erre ene a

0 1
  C      -94.431    -897.080    -153.807
  O      -94.781    -897.610    -152.538
  P      -95.756    -896.900    -151.492
  C      -97.613    -898.740    -151.596
  O      -97.245    -897.390    -151.792
  C      -98.739    -898.930    -150.558
  O      -98.240    -898.600    -149.244
  C      -99.902    -897.990    -150.839
  O     -100.881    -898.310    -151.804
  C     -100.460    -897.650    -149.465
  O     -101.556    -898.480    -149.114
  C      -99.263    -897.890    -148.535
  N      -99.952    -893.880    -145.409
  C     -100.831    -894.910    -145.725
  N     -102.060    -894.840    -145.184
  N     -100.521    -895.910    -146.514
  C      -99.275    -895.800    -147.057
  C      -98.332    -894.830    -146.844
  C      -98.646    -893.770    -145.894
  O      -97.906    -892.850    -145.596
  N      -97.188    -895.050    -147.592
  C      -97.485    -896.150    -148.285
  N      -98.741    -896.650    -147.986
  O      -95.557    -895.430    -151.312
  O      -95.398    -897.620    -150.083
  H     -101.802    -898.270    -148.187
  H      -95.518    -896.930    -149.387
  H     -100.212    -893.170    -144.766
  H      -96.802    -896.620    -148.983
  H      -99.551    -898.490    -147.687
  H     -100.846    -896.610    -149.457
  H     -102.402    -894.060    -144.669
  H      -99.462    -897.040    -151.230
  H     -102.779    -895.440    -145.568
  H      -99.038    -900.000    -150.515
  H      -96.701    -899.280    -151.286
  H      -97.915    -899.190    -152.568
  P     -101.332    -897.430    -153.079
  C     -100.498    -899.050    -154.864
  O     -100.346    -897.790    -154.273
  O     -100.883    -895.940    -152.666
  O     -102.798    -897.480    -153.396
  H     -101.337    -895.290    -153.242
  H      -99.605    -899.290    -155.443
  H     -101.353    -899.050    -155.538
  H     -100.631    -899.820    -154.097
  H      -93.766    -897.755    -154.304
  H      -93.948    -896.134    -153.678
  H      -95.315    -896.952    -154.396

 3  4  5  6  7  8  9  10  11  12  23  26  30  31 0
 6-311+G(2d,p)
 ****
 33  35  36  37  38 0
 6-311+G(2d,p)
 ****
 1  2  13  14  15  16  17  18  19  20  21  22  24  25 0
 3-21G
 ****
 27  28  29  32  34  39  40  41  42  43  44  45  46  47  48  49 0
 3-21G
 ****


