%nproc=1
%NoSave
%Mem=1900MB
#P OB98/GEN NMR

erre ene a

0 1
  C      -58.825     -36.202       7.048
  O      -58.161     -36.812       8.168
  P      -57.000     -36.000       8.928
  C      -57.294     -33.698      10.135
  O      -57.675     -35.062      10.041
  C      -58.301     -32.927      10.993
  O      -59.637     -33.069      10.457
  C      -58.398     -33.410      12.433
  O      -57.308     -32.960      13.218
  C      -59.737     -32.818      12.860
  O      -59.589     -31.444      13.257
  C      -60.559     -32.924      11.560
  N      -61.527     -34.016      11.593
  C      -62.702     -33.781      12.299
  O      -62.917     -32.744      12.922
  N      -63.615     -34.801      12.295
  C      -63.442     -36.031      11.723
  O      -64.291     -36.911      11.771
  C      -62.147     -36.248      11.063
  C      -61.263     -35.250      11.032
  O      -56.561     -34.930       7.816
  O      -55.828     -36.810       9.374
  H      -59.390     -30.938      12.444
  H      -55.627     -34.684       7.952
  H      -64.486     -34.641      12.775
  H      -61.961     -37.217      10.617
  H      -60.302     -35.395      10.547
  H      -61.098     -31.986      11.378
  H      -60.178     -33.351      13.707
  H      -58.467     -34.503      12.456
  H      -58.033     -31.862      10.962
  H      -57.270     -33.260       9.133
  H      -56.291     -33.636      10.569
  P      -56.252     -34.075      13.693
  C      -55.309     -36.197      12.492
  O      -55.928     -34.934      12.380
  O      -57.188     -35.018      14.588
  O      -55.077     -33.500      14.412
  H      -58.098     -35.059      14.247
  H      -55.612     -36.715      13.406
  H      -54.223     -36.068      12.490
  H      -55.596     -36.808      11.630
  H      -59.564     -36.873       6.663
  H      -58.108     -35.984       6.284
  H      -59.297     -35.295       7.364

 3  4  5  6  7  8  9  10  11  12  13  23  28  29  30  31  32 0
 6-311+G(2d,p)
 ****
 33  34 0
 6-311+G(2d,p)
 ****
 1  2  14  15  16  17  18  19  20  21  22  24  25  26 0
 3-21G
 ****
 27  35  36  37  38  39  40  41  42  43  44  45 0
 3-21G
 ****


