%nproc=1
%NoSave
%Mem=1900MB
#P OB98/GEN NMR

erre ene a

0 1
  C     -565.740    -257.523    -193.763
  O     -566.267    -258.827    -193.656
  P     -567.759    -259.061    -193.112
  C     -568.455    -259.920    -195.442
  O     -568.703    -258.968    -194.412
  C     -569.342    -261.168    -195.245
  O     -570.732    -260.791    -195.218
  C     -569.203    -262.188    -196.364
  O     -568.010    -262.937    -196.220
  C     -570.484    -263.003    -196.170
  O     -570.325    -263.983    -195.136
  C     -571.490    -261.915    -195.741
  N     -572.369    -261.499    -196.820
  C     -573.278    -262.470    -197.272
  O     -573.282    -263.592    -196.775
  N     -574.131    -262.147    -198.297
  C     -574.057    -260.967    -198.844
  N     -574.919    -260.719    -199.870
  C     -573.090    -259.934    -198.429
  C     -572.289    -260.268    -197.415
  O     -568.161    -258.192    -191.974
  O     -567.781    -260.623    -192.770
  H     -571.195    -264.429    -195.048
  H     -567.280    -260.821    -191.937
  H     -573.069    -258.971    -198.919
  H     -571.550    -259.568    -197.046
  H     -572.105    -262.271    -194.905
  H     -570.779    -263.531    -197.082
  H     -569.231    -261.689    -197.339
  H     -569.074    -261.615    -194.283
  H     -575.540    -261.460    -200.151
  H     -567.404    -260.220    -195.395
  H     -574.924    -259.847    -200.387
  H     -568.642    -259.465    -196.414
  P     -566.929    -262.951    -197.405
  C     -565.243    -261.428    -196.211
  O     -566.102    -261.584    -197.324
  O     -567.455    -263.298    -198.751
  O     -565.858    -264.050    -196.917
  H     -565.625    -264.617    -197.676
  H     -564.519    -260.638    -196.429
  H     -564.716    -262.358    -195.980
  H     -565.835    -261.119    -195.337
  H     -564.741    -257.572    -194.142
  H     -565.733    -257.061    -192.798
  H     -566.346    -256.947    -194.430

 3  4  5  6  7  8  9  10  11  12  13  23  27  28  29  30  32 0
 6-311+G(2d,p)
 ****
 34  35 0
 6-311+G(2d,p)
 ****
 1  2  14  15  16  17  18  19  20  21  22  24  25  26 0
 3-21G
 ****
 31  33  36  37  38  39  40  41  42  43  44  45  46 0
 3-21G
 ****


