%nproc=1
%NoSave
%Mem=1900MB
#P OB98/GEN NMR

erre ene a

0 1
  C      643.418    -131.526    -491.106
  O      643.700    -131.584    -489.694
  P      644.697    -132.718    -489.141
  C      646.985    -131.459    -489.278
  O      646.145    -132.483    -489.785
  C      648.106    -132.067    -488.427
  O      649.054    -132.769    -489.257
  C      648.934    -131.047    -487.657
  O      648.248    -130.560    -486.507
  C      650.176    -131.855    -487.322
  O      649.965    -132.671    -486.152
  C      650.324    -132.741    -488.576
  N      651.399    -132.283    -489.462
  C      652.463    -133.156    -489.649
  O      652.560    -134.238    -489.064
  N      653.446    -132.722    -490.501
  C      653.496    -131.506    -491.121
  O      654.410    -131.176    -491.860
  C      652.381    -130.595    -490.818
  C      651.403    -131.018    -490.011
  O      644.192    -134.019    -489.926
  O      644.666    -132.947    -487.667
  H      649.200    -133.237    -486.345
  H      644.379    -134.814    -489.398
  H      654.218    -133.354    -490.673
  H      652.391    -129.609    -491.276
  H      650.574    -130.355    -489.785
  H      650.537    -133.778    -488.289
  H      651.046    -131.228    -487.119
  H      649.213    -130.217    -488.315
  H      647.654    -132.795    -487.734
  H      646.392    -130.775    -488.662
  H      647.405    -130.893    -490.124
  P      647.403    -129.206    -486.689
  C      644.971    -130.135    -486.510
  O      646.015    -129.664    -487.331
  O      648.211    -128.510    -487.884
  O      647.330    -128.395    -485.438
  H      648.578    -129.161    -488.516
  H      644.972    -129.647    -485.530
  H      645.084    -131.216    -486.374
  H      644.009    -129.937    -487.000
  H      642.742    -130.720    -491.302
  H      642.974    -132.448    -491.419
  H      644.328    -131.367    -491.645

 3  4  5  6  7  8  9  10  11  12  13  23  28  29  30  31  32 0
 6-311+G(2d,p)
 ****
 33  34 0
 6-311+G(2d,p)
 ****
 1  2  14  15  16  17  18  19  20  21  22  24  25  26 0
 3-21G
 ****
 27  35  36  37  38  39  40  41  42  43  44  45 0
 3-21G
 ****


