%nproc=1
%NoSave
%Mem=1900MB
#P OB98/GEN NMR

erre ene a

0 1
  C      456.189     196.309     611.214
  O      455.179     196.153     612.226
  P      455.588     195.425     613.589
  C      454.995     197.564     614.961
  O      455.956     196.562     614.671
  C      455.464     198.420     616.140
  O      455.463     197.668     617.381
  C      456.867     198.960     615.999
  O      456.922     200.126     615.183
  C      457.208     199.314     617.446
  O      456.610     200.581     617.785
  C      456.535     198.186     618.216
  N      461.164     196.912     620.000
  C      460.581     198.108     619.764
  N      459.359     198.370     619.263
  C      458.694     197.229     619.029
  C      459.151     195.928     619.227
  C      460.449     195.792     619.746
  N      461.033     194.568     619.988
  N      458.195     195.013     618.867
  C      457.164     195.733     618.469
  N      457.422     197.083     618.540
  O      457.013     194.776     613.252
  O      454.606     194.403     614.056
  H      457.104     201.267     617.300
  H      457.117     193.929     613.734
  H      461.187     198.983     619.994
  H      456.216     195.330     618.112
  H      456.094     198.527     619.154
  H      458.289     199.409     617.606
  H      457.555     198.185     615.620
  H      454.755     199.267     616.251
  H      454.027     197.111     615.186
  H      461.959     194.552     620.385
  H      460.508     193.736     619.820
  H      454.848     198.186     614.075
  P      457.706     200.041     613.791
  C      455.928     201.584     612.700
  O      456.620     200.363     612.647
  O      457.986     198.465     613.642
  O      458.954     200.845     613.741
  H      458.809     198.318     613.141
  H      455.471     201.769     611.723
  H      456.606     202.412     612.934
  H      455.131     201.535     613.442
  H      455.770     196.810     610.366
  H      456.549     195.346     610.917
  H      457.000     196.887     611.605

 3  4  5  6  7  8  9  10  11  12  22  25  29  30  31  32 0
 6-311+G(2d,p)
 ****
 33  36  37 0
 6-311+G(2d,p)
 ****
 1  2  13  14  15  16  17  18  19  20  21  23  24  26 0
 3-21G
 ****
 27  28  34  35  38  39  40  41  42  43  44  45  46  47  48 0
 3-21G
 ****


