%nproc=1
%NoSave
%Mem=1900MB
#P OB98/GEN NMR

erre ene a

0 1
  C      107.521      69.901    -304.996
  O      107.348      69.675    -306.384
  H      107.345      70.957    -304.769
  H      106.792      69.294    -304.450
  H      108.527      69.612    -304.682
  P      108.433      70.334    -307.364
  C      106.687      71.180    -309.100
  O      107.773      70.302    -308.830
  C      105.589      70.446    -309.871
  O      105.936      70.433    -311.284
  C      105.392      68.996    -309.425
  O      103.993      68.690    -309.452
  C      106.115      68.192    -310.493
  O      105.610      66.871    -310.610
  C      105.882      69.062    -311.729
  N      106.862      66.595    -316.094
  C      105.736      66.723    -315.361
  N      105.556      67.405    -314.213
  C      106.694      68.038    -313.854
  C      107.920      68.001    -314.497
  C      107.989      67.227    -315.670
  N      109.140      67.060    -316.401
  N      108.849      68.750    -313.804
  C      108.198      69.226    -312.762
  N      106.890      68.825    -312.750
  O      109.565      69.200    -307.433
  O      108.983      71.651    -306.931
  H      105.732      66.412    -309.749
  H      110.124      69.251    -306.635
  H      104.860      66.200    -315.750
  H      108.623      69.861    -311.990
  H      104.906      68.885    -312.192
  H      107.179      68.133    -310.251
  H      105.788      68.801    -308.426
  H      104.657      71.025    -309.781
  H      107.055      72.023    -309.692
  H      109.117      66.437    -317.195
  H      109.996      67.471    -316.067
  H      106.285      71.557    -308.155
  P      103.322      68.261    -308.051
  C      101.164      67.249    -309.066
  O      101.728      68.254    -308.230
  O      103.594      69.527    -307.107
  O      103.906      67.016    -307.468
  H      103.977      69.241    -306.260
  H      100.101      67.364    -309.094
  H      101.409      66.283    -308.677
  H      101.559      67.345    -310.056

 6  7  8  9  10  11  12  13  14  15  25  28  32  33  34  35 0
 6-311+G(2d,p)
 ****
 36  39  40 0
 6-311+G(2d,p)
 ****
 1  2  3  4  5  16  17  18  19  20  21  22  23  24 0
 3-21G
 ****
 26  27  29  30  31  37  38  41  42  43  44  45  46  47 0
 3-21G
 ****
 48 0
 3-21G
 ****


