%nproc=1
%NoSave
%Mem=1900MB
#P OB98/GEN NMR

erre ene a

0 1
  C      -10.233     169.221      -9.697
  O       -8.851     169.517      -9.702
  H      -10.693     169.682     -10.576
  H      -10.716     169.616      -8.800
  H      -10.383     168.138      -9.753
  P       -8.000     169.171      -8.385
  C       -5.701     169.559      -9.500
  O       -6.635     170.012      -8.523
  C       -4.568     170.572      -9.685
  O       -5.076     171.781     -10.288
  C       -3.923     171.017      -8.380
  O       -3.168     170.011      -7.738
  C       -3.254     172.326      -8.772
  O       -1.953     172.155      -9.324
  C       -4.218     172.862      -9.862
  N       -4.984     174.013      -9.399
  C       -4.489     175.258      -9.773
  O       -3.464     175.413     -10.436
  N       -5.197     176.340      -9.325
  C       -6.294     176.297      -8.513
  O       -6.860     177.305      -8.109
  C       -6.752     174.952      -8.127
  C       -6.086     173.886      -8.580
  O       -7.782     167.712      -8.115
  O       -8.778     169.934      -7.216
  H       -1.677     173.021      -9.683
  H       -8.515     169.588      -6.329
  H       -4.862     177.249      -9.596
  H       -7.617     174.879      -7.481
  H       -6.405     172.884      -8.310
  H       -3.649     173.173     -10.749
  H       -3.154     172.998      -7.918
  H       -4.726     171.282      -7.680
  H       -3.824     170.139     -10.365
  H       -6.236     169.447     -10.448
  H       -5.298     168.585      -9.203
  P       -3.393     169.581      -6.216
  C       -2.541     167.159      -6.599
  O       -2.388     168.374      -5.877
  O       -4.810     169.485      -5.746
  O       -2.713     170.819      -5.433
  H       -3.223     170.966      -4.612
  H       -1.808     166.453      -6.268
  H       -2.410     167.346      -7.644
  H       -3.520     166.763      -6.428

 6  7  8  9  10  11  12  13  14  15  16  26  31  32  33  34  35 0
 6-311+G(2d,p)
 ****
 36  37 0
 6-311+G(2d,p)
 ****
 1  2  3  4  5  17  18  19  20  21  22  23  24  25 0
 3-21G
 ****
 27  28  29  30  38  39  40  41  42  43  44  45 0
 3-21G
 ****


