%nproc=1
%NoSave
%Mem=1900MB
#P OB98/GEN NMR

erre ene a

0 1
  C      108.699     -63.619    -221.709
  O      107.410     -63.587    -221.111
  P      107.294     -63.109    -219.583
  C      106.398     -65.404    -218.775
  O      107.420     -64.422    -218.668
  C      105.995     -65.937    -217.401
  O      107.158     -66.557    -216.782
  C      105.478     -64.871    -216.429
  O      104.493     -65.500    -215.591
  C      106.701     -64.550    -215.587
  O      106.359     -63.949    -214.337
  C      107.334     -65.932    -215.489
  N      111.511     -68.677    -214.363
  C      110.249     -69.044    -214.680
  N      109.192     -68.253    -214.967
  C      109.542     -66.959    -214.906
  C      110.773     -66.431    -214.560
  C      111.800     -67.352    -214.282
  N      113.087     -66.982    -213.972
  N      110.733     -65.049    -214.581
  C      109.499     -64.748    -214.926
  N      108.751     -65.869    -215.157
  O      105.752     -62.707    -219.457
  O      108.185     -61.969    -219.202
  H      107.188     -63.729    -213.870
  H      105.668     -61.737    -219.349
  H      110.069     -70.118    -214.712
  H      109.099     -63.747    -215.021
  H      106.844     -66.565    -214.734
  H      107.353     -63.849    -216.129
  H      105.053     -63.984    -216.915
  H      105.246     -66.727    -217.543
  H      106.772     -66.237    -219.379
  H      113.792     -67.699    -213.921
  H      113.357     -66.011    -214.098
  H      105.526     -64.970    -219.283
  P      103.405     -64.539    -214.910
  C      104.813     -64.318    -212.738
  O      104.186     -63.659    -213.819
  O      102.527     -65.541    -214.026
  O      102.563     -63.771    -215.884
  H      101.620     -65.189    -213.916
  H      105.720     -63.772    -212.462
  H      105.086     -65.350    -212.991
  H      104.123     -64.332    -211.881
  H      108.614     -63.956    -222.721
  H      109.329     -64.288    -221.162
  H      109.124     -62.637    -221.694

 3  4  5  6  7  8  9  10  11  12  22  25  29  30  31  32 0
 6-311+G(2d,p)
 ****
 33  36  37 0
 6-311+G(2d,p)
 ****
 1  2  13  14  15  16  17  18  19  20  21  23  24  26 0
 3-21G
 ****
 27  28  34  35  38  39  40  41  42  43  44  45  46  47  48 0
 3-21G
 ****


