%nproc=1
%NoSave
%Mem=1900MB
#P OB98/GEN NMR

erre ene a

0 1
  C     -236.783    -105.999    -242.308
  O     -236.805    -107.303    -241.769
  H     -237.802    -105.717    -242.582
  H     -236.157    -105.973    -243.203
  H     -236.406    -105.287    -241.569
  P     -235.404    -107.914    -241.270
  C     -235.037    -109.077    -243.570
  O     -234.550    -108.142    -242.616
  C     -234.055    -110.243    -243.721
  O     -234.575    -111.178    -244.698
  C     -232.664    -109.807    -244.187
  O     -231.674    -110.514    -243.437
  C     -232.620    -110.205    -245.651
  O     -231.289    -110.438    -246.107
  C     -233.551    -111.423    -245.678
  N     -234.126    -111.638    -247.004
  C     -233.381    -112.419    -247.897
  O     -232.288    -112.878    -247.556
  N     -233.863    -112.615    -249.165
  C     -234.958    -112.033    -249.535
  N     -235.370    -112.250    -250.813
  C     -235.750    -111.162    -248.645
  C     -235.284    -111.016    -247.406
  O     -235.799    -109.395    -240.817
  O     -234.704    -107.123    -240.217
  H     -230.850    -109.566    -246.221
  H     -235.078    -109.816    -240.290
  H     -236.651    -110.686    -249.005
  H     -235.801    -110.393    -246.685
  H     -233.008    -112.332    -245.381
  H     -233.045    -109.398    -246.260
  H     -232.493    -108.737    -244.073
  H     -234.005    -110.782    -242.768
  H     -234.797    -112.842    -251.399
  H     -235.160    -108.571    -244.532
  H     -236.192    -111.823    -251.217
  H     -236.008    -109.457    -243.236
  P     -231.082    -109.750    -242.155
  C     -228.869    -108.977    -243.262
  O     -230.109    -108.589    -242.691
  O     -230.084    -110.821    -241.509
  O     -232.130    -109.294    -241.195
  H     -230.509    -111.272    -240.757
  H     -228.331    -108.106    -243.572
  H     -229.048    -109.606    -244.109
  H     -228.294    -109.512    -242.535

 6  7  8  9  10  11  12  13  14  15  16  26  30  31  32  33  35 0
 6-311+G(2d,p)
 ****
 37  38 0
 6-311+G(2d,p)
 ****
 1  2  3  4  5  17  18  19  20  21  22  23  24  25 0
 3-21G
 ****
 27  28  29  34  36  39  40  41  42  43  44  45  46 0
 3-21G
 ****


