%nproc=1
%NoSave
%Mem=1900MB
#P OB98/GEN NMR

erre ene a

0 1
  C     -223.948     127.677     110.903
  O     -223.301     128.296     109.805
  P     -223.496     127.735     108.319
  C     -223.034     125.514     107.126
  O     -222.668     126.361     108.209
  C     -222.122     124.291     107.044
  O     -222.212     123.545     108.288
  C     -222.455     123.314     105.903
  O     -221.212     122.762     105.451
  C     -223.269     122.239     106.605
  O     -223.300     121.011     105.891
  C     -222.536     122.182     107.948
  N     -222.918     118.320     111.286
  C     -222.001     118.594     110.328
  N     -221.987     119.631     109.463
  C     -223.048     120.430     109.650
  C     -224.078     120.257     110.564
  C     -223.979     119.150     111.420
  N     -224.885     118.871     112.423
  N     -225.026     121.260     110.417
  C     -224.570     122.013     109.436
  N     -223.344     121.588     108.988
  O     -223.221     128.716     107.227
  O     -225.021     127.245     108.282
  H     -223.712     120.332     106.459
  H     -225.556     127.871     107.763
  H     -221.169     117.898     110.256
  H     -225.077     122.872     109.016
  H     -221.603     121.613     107.876
  H     -224.305     122.586     106.737
  H     -222.997     123.772     105.064
  H     -221.084     124.641     106.953
  H     -222.950     126.092     106.199
  H     -224.646     118.126     113.067
  H     -225.524     119.604     112.728
  H     -224.081     125.196     107.241
  P     -220.967     122.507     103.891
  C     -222.053     121.045     102.089
  O     -221.873     121.251     103.481
  O     -219.531     122.421     103.473
  O     -221.712     123.743     103.188
  H     -221.395     123.841     102.276
  H     -222.832     121.721     101.716
  H     -222.374     120.011     101.922
  H     -221.122     121.227     101.538
  H     -223.694     128.194     111.805
  H     -223.631     126.658     110.975
  H     -225.008     127.711     110.758

 3  4  5  6  7  8  9  10  11  12  22  25  29  30  31  32 0
 6-311+G(2d,p)
 ****
 33  36  37 0
 6-311+G(2d,p)
 ****
 1  2  13  14  15  16  17  18  19  20  21  23  24  26 0
 3-21G
 ****
 27  28  34  35  38  39  40  41  42  43  44  45  46  47  48 0
 3-21G
 ****


