%nproc=1
%NoSave
%Mem=1900MB
#P OB98/GEN NMR

erre ene a

0 1
  C     1291.276    -205.030     578.553
  O     1290.293    -205.980     578.204
  P     1289.774    -206.960     579.383
  C     1290.595    -209.273     580.298
  O     1290.714    -208.241     579.333
  C     1291.035    -210.602     579.721
  O     1292.335    -210.477     579.061
  C     1291.212    -211.732     580.726
  O     1289.981    -212.263     581.153
  C     1292.110    -212.702     579.960
  O     1291.295    -213.477     579.039
  C     1292.993    -211.724     579.158
  N     1294.342    -211.573     579.786
  C     1295.166    -212.684     579.728
  O     1294.853    -213.758     579.240
  N     1296.408    -212.527     580.300
  C     1296.851    -211.396     580.976
  O     1297.947    -211.336     581.504
  C     1295.911    -210.283     581.016
  C     1294.721    -210.399     580.416
  O     1288.378    -207.444     578.750
  O     1289.635    -206.277     580.702
  H     1288.401    -207.423     577.759
  H     1290.690    -213.991     579.599
  H     1297.042    -213.301     580.256
  H     1296.217    -209.392     581.525
  H     1294.001    -209.595     580.460
  H     1293.137    -212.100     578.134
  H     1292.642    -213.392     580.628
  H     1291.766    -211.334     581.604
  H     1290.295    -210.906     578.951
  H     1289.557    -209.321     580.642
  H     1291.227    -209.011     581.173
  P     1290.024    -213.357     582.343
  C     1290.641    -215.910     582.408
  O     1290.258    -214.770     581.641
  O     1288.492    -213.403     582.810
  O     1290.986    -213.017     583.433
  H     1287.869    -213.381     582.042
  H     1290.422    -216.806     581.833
  H     1290.111    -215.941     583.372
  H     1291.729    -215.870     582.598
  H     1291.532    -204.449     577.692
  H     1292.148    -205.535     578.914
  H     1290.894    -204.386     579.317

 3  4  5  6  7  8  9  10  11  12  13  24  28  29  30  31  32 0
 6-311+G(2d,p)
 ****
 33  34 0
 6-311+G(2d,p)
 ****
 1  2  14  15  16  17  18  19  20  21  22  23  25  26  27 0
 3-21G
 ****
 35  36  37  38  39  40  41  42  43  44  45 0
 3-21G
 ****


