%nproc=1
%NoSave
%Mem=1900MB
#P OB98/GEN NMR

erre ene a

0 1
  C      190.251     122.058     -75.153
  O      190.199     123.303     -75.853
  P      190.771     124.643     -75.182
  C      188.506     125.576     -74.436
  O      189.780     125.108     -74.004
  C      187.801     126.462     -73.403
  O      187.544     125.730     -72.178
  C      188.565     127.734     -73.014
  O      187.567     128.725     -72.750
  C      189.261     127.309     -71.734
  O      189.690     128.422     -70.954
  C      188.185     126.426     -71.093
  N      188.738     125.503     -70.105
  C      188.743     125.927     -68.774
  O      188.348     127.059     -68.481
  N      189.240     125.081     -67.812
  C      189.781     123.956     -68.165
  N      190.280     123.172     -67.170
  C      189.874     123.504     -69.568
  C      189.329     124.318     -70.476
  O      191.130     125.725     -76.151
  O      192.076     124.146     -74.392
  H      189.929     128.094     -70.058
  H      192.730     124.871     -74.359
  H      190.356     122.569     -69.817
  H      189.344     124.072     -71.530
  H      187.421     127.044     -70.599
  H      190.149     126.714     -71.974
  H      189.263     128.073     -73.784
  H      186.822     126.730     -73.818
  H      190.216     123.528     -66.222
  H      187.873     124.706     -74.656
  H      190.819     122.334     -67.341
  H      188.631     126.127     -75.375
  P      187.093     129.771     -73.864
  C      187.713     131.888     -72.563
  O      188.003     131.079     -73.688
  O      185.623     130.037     -73.894
  O      187.602     129.154     -75.256
  H      187.118     129.573     -75.989
  H      188.519     132.614     -72.433
  H      187.633     131.277     -71.657
  H      186.774     132.422     -72.726
  H      189.824     121.288     -75.762
  H      189.698     122.139     -74.240
  H      191.269     121.815     -74.933

 3  4  5  6  7  8  9  10  11  12  13  23  27  28  29  30  32 0
 6-311+G(2d,p)
 ****
 34  35 0
 6-311+G(2d,p)
 ****
 1  2  14  15  16  17  18  19  20  21  22  24  25  26 0
 3-21G
 ****
 31  33  36  37  38  39  40  41  42  43  44  45  46 0
 3-21G
 ****


