%nproc=1
%NoSave
%Mem=1900MB
#P OB98/GEN NMR

erre ene a

0 1
  C       66.436       2.419     -44.234
  O       66.280       1.153     -43.617
  P       65.384       0.061     -44.382
  C       63.130      -1.001     -43.647
  O       63.903       0.187     -43.777
  C       62.341      -1.011     -42.337
  O       63.272      -1.057     -41.229
  C       61.436       0.206     -42.144
  O       60.243      -0.235     -41.493
  C       62.221       1.084     -41.189
  O       61.370       1.965     -40.460
  C       62.945       0.028     -40.338
  N       64.136       0.565     -39.688
  C       63.960       1.148     -38.430
  O       62.830       1.262     -37.956
  N       65.058       1.634     -37.766
  C       66.214       1.635     -38.354
  N       67.272       2.124     -37.654
  C       66.419       1.142     -39.730
  C       65.354       0.607     -40.323
  O       65.913      -1.322     -43.778
  O       65.486       0.105     -45.871
  H       60.740       2.375     -41.094
  H       65.857      -2.035     -44.442
  H       67.396       1.200     -40.187
  H       65.415       0.200     -41.322
  H       62.275      -0.368     -39.564
  H       62.946       1.688     -41.749
  H       61.181       0.701     -43.086
  H       61.749      -1.933     -42.301
  H       67.103       2.470     -36.718
  H       63.801      -1.864     -43.648
  H       68.209       2.166     -38.031
  H       62.457      -1.091     -44.505
  P       59.018       0.796     -41.407
  C       58.462       2.301     -39.404
  O       59.461       1.877     -40.310
  O       57.936      -0.063     -40.591
  O       58.442       1.320     -42.680
  H       57.103       0.438     -40.524
  H       58.928       2.924     -38.635
  H       57.991       1.441     -38.923
  H       57.711       2.897     -39.930
  H       67.052       3.042     -43.619
  H       65.477       2.876     -44.357
  H       66.898       2.295     -45.191

 3  4  5  6  7  8  9  10  11  12  13  21  23  27  28  29  30  32 0
 6-311+G(2d,p)
 ****
 34  35 0
 6-311+G(2d,p)
 ****
 1  2  14  15  16  17  18  19  20  22  24  25  26 0
 3-21G
 ****
 31  33  36  37  38  39  40  41  42  43  44  45  46 0
 3-21G
 ****


