%nproc=1
%NoSave
%Mem=1900MB
#P OB98/GEN NMR

erre ene a

0 1
  C      182.530    -361.184     412.207
  O      182.345    -360.907     413.588
  H      183.373    -361.875     412.100
  H      182.761    -360.267     411.656
  H      181.632    -361.651     411.792
  P      181.268    -359.791     413.995
  C      182.683    -357.694     413.452
  O      181.588    -358.523     413.073
  C      182.376    -356.231     413.124
  O      181.919    -356.113     411.761
  C      181.264    -355.649     413.988
  O      181.738    -355.346     415.289
  C      180.853    -354.454     413.151
  O      181.752    -353.349     413.334
  C      180.961    -355.026     411.718
  N      179.679    -355.477     411.190
  C      178.698    -354.495     411.022
  O      178.938    -353.322     411.312
  N      177.465    -354.874     410.558
  C      177.232    -356.120     410.263
  N      175.985    -356.421     409.807
  C      178.239    -357.182     410.406
  C      179.429    -356.800     410.872
  O      181.148    -359.474     415.457
  O      179.896    -360.349     413.387
  H      182.654    -353.727     413.254
  H      179.438    -360.919     414.035
  H      178.005    -358.207     410.150
  H      180.228    -357.520     411.007
  H      181.369    -354.271     411.031
  H      179.854    -354.111     413.408
  H      180.416    -356.340     414.033
  H      183.302    -355.650     413.223
  H      175.322    -355.663     409.735
  H      183.556    -358.032     412.880
  H      175.720    -357.337     409.463
  H      182.901    -357.800     414.521
  P      181.030    -355.968     416.582
  C      179.640    -354.280     417.962
  O      179.691    -355.101     416.790
  O      181.895    -356.106     417.788
  O      180.456    -357.370     416.043
  H      181.185    -358.033     415.924
  H      178.708    -353.756     417.990
  H      180.445    -353.575     417.939
  H      179.729    -354.895     418.833

 6  7  8  9  10  11  12  13  14  15  16  26  30  31  32  33  35 0
 6-311+G(2d,p)
 ****
 37  38 0
 6-311+G(2d,p)
 ****
 1  2  3  4  5  17  18  19  20  21  22  23  24  25 0
 3-21G
 ****
 27  28  29  34  36  39  40  41  42  43  44  45  46 0
 3-21G
 ****


