%nproc=1
%NoSave
%Mem=1900MB
#P OB98/GEN NMR

erre ene a

0 1
  C      -84.744     178.084     120.950
  O      -85.131     177.796     119.622
  P      -84.324     176.744     118.721
  C      -84.051     178.631     116.997
  O      -84.439     177.283     117.213
  C      -83.327     178.794     115.659
  O      -82.049     178.102     115.712
  C      -84.096     178.255     114.445
  O      -83.764     179.112     113.348
  C      -83.481     176.883     114.254
  O      -83.707     176.358     112.952
  C      -82.016     177.169     114.610
  N      -81.286     175.951     114.940
  C      -80.662     175.288     113.881
  O      -80.806     175.689     112.725
  N      -79.935     174.153     114.146
  C      -79.924     173.670     115.349
  N      -79.183     172.548     115.554
  C      -80.671     174.269     116.469
  C      -81.312     175.404     116.201
  O      -84.713     175.317     118.910
  O      -82.793     177.039     119.077
  H      -83.411     175.422     112.941
  H      -82.560     176.644     119.955
  H      -80.677     173.799     117.441
  H      -81.888     175.918     116.958
  H      -81.506     177.665     113.775
  H      -83.917     176.181     114.974
  H      -85.176     178.216     114.594
  H      -83.111     179.861     115.522
  H      -78.673     172.178     114.761
  H      -83.372     178.921     117.802
  H      -79.039     172.139     116.464
  H      -84.927     179.285     117.047
  P      -84.753     180.280     112.875
  C      -84.979     179.548     110.434
  O      -84.474     180.530     111.320
  O      -84.730     181.510     113.724
  O      -86.205     179.598     112.880
  H      -86.888     180.292     112.853
  H      -84.981     179.952     109.418
  H      -85.998     179.263     110.705
  H      -84.335     178.665     110.463
  H      -85.413     178.808     121.367
  H      -83.748     178.475     120.954
  H      -84.778     177.188     121.534

 3  4  5  6  7  8  9  10  11  12  13  23  27  28  29  30  32 0
 6-311+G(2d,p)
 ****
 34  35 0
 6-311+G(2d,p)
 ****
 1  2  14  15  16  17  18  19  20  21  22  24  25  26 0
 3-21G
 ****
 31  33  36  37  38  39  40  41  42  43  44  45  46 0
 3-21G
 ****


