%nproc=1
%NoSave
%Mem=1900MB
#P OB98/GEN NMR

erre ene a

0 1
  C       -3.588       6.295       1.514
  O       -4.136       7.291       0.678
  H       -4.335       6.018       2.262
  H       -2.706       6.687       2.027
  H       -3.317       5.404       0.944
  P       -3.386       7.648      -0.690
  C       -5.020       6.004      -1.826
  O       -4.385       7.273      -1.888
  C       -6.070       5.867      -2.936
  O       -7.227       6.671      -2.592
  C       -5.542       6.394      -4.275
  O       -6.158       5.748      -5.386
  C       -5.970       7.853      -4.252
  O       -6.061       8.430      -5.554
  C       -7.308       7.764      -3.521
  N      -10.159      11.989      -3.482
  C       -9.957      11.082      -4.503
  N      -10.603      11.333      -5.666
  N       -9.176      10.039      -4.402
  C       -8.540       9.953      -3.209
  C       -8.641      10.801      -2.130
  C       -9.535      11.933      -2.242
  O       -9.733      12.779      -1.377
  N       -7.835      10.394      -1.096
  C       -7.245       9.306      -1.549
  N       -7.659       8.984      -2.818
  O       -2.262       6.512      -0.811
  O       -2.791       9.021      -0.762
  H       -6.389       9.342      -5.447
  H       -1.540       6.811      -1.392
  H      -10.793      12.759      -3.602
  H       -6.528       8.711      -0.998
  H       -8.120       7.545      -4.226
  H       -5.219       8.421      -3.699
  H      -11.048      12.220      -5.844
  H       -4.463       6.305      -4.366
  H      -10.229      10.872      -6.499
  H       -6.414       4.829      -3.002
  H       -5.490       5.930      -0.843
  H       -4.281       5.205      -1.893
  P       -5.270       5.448      -6.684
  C       -6.865       3.613      -7.728
  O       -6.189       4.845      -7.842
  O       -4.355       4.216      -6.241
  O       -4.454       6.610      -7.156
  H       -3.415       4.477      -6.228
  H       -7.413       3.423      -8.627
  H       -7.541       3.652      -6.899
  H       -6.154       2.829      -7.571

 6  7  8  9  10  11  12  13  14  15  26  29  33  34 0
 6-311+G(2d,p)
 ****
 36  38  39  40  41 0
 6-311+G(2d,p)
 ****
 1  2  3  4  5  16  17  18  19  20  21  22  23  24  25 0
 3-21G
 ****
 27  28  30  31  32  35  37  42  43  44  45  46  47 0
 3-21G
 ****
 48  49 0
 3-21G
 ****


