%nproc=1
%NoSave
%Mem=1900MB
#P OB98/GEN NMR

erre ene a

0 1
  C      749.237    -449.067    -230.316
  O      748.805    -450.059    -231.264
  P      748.805    -449.680    -232.824
  C      751.025    -448.519    -233.463
  O      750.311    -449.753    -233.363
  C      752.523    -448.765    -233.780
  O      753.163    -449.311    -232.599
  C      752.764    -449.789    -234.890
  O      752.833    -449.324    -236.239
  C      754.165    -450.271    -234.540
  O      755.151    -449.364    -235.057
  C      754.191    -450.242    -233.016
  N      755.748    -455.127    -232.844
  C      756.190    -454.054    -233.531
  N      755.725    -452.788    -233.517
  C      754.683    -452.665    -232.680
  C      754.124    -453.672    -231.895
  C      754.687    -454.954    -232.005
  N      754.235    -456.050    -231.303
  N      753.053    -453.174    -231.167
  C      752.977    -451.902    -231.503
  N      753.952    -451.536    -232.404
  O      748.041    -448.445    -233.191
  O      748.134    -450.974    -233.493
  H      754.916    -449.192    -235.982
  H      747.569    -450.687    -234.236
  H      757.040    -454.239    -234.190
  H      752.241    -451.202    -231.123
  H      755.146    -449.869    -232.607
  H      754.394    -451.259    -234.979
  H      752.053    -450.631    -234.832
  H      752.995    -447.815    -234.026
  H      750.938    -447.973    -232.507
  H      754.651    -456.934    -231.470
  H      753.407    -455.950    -230.715
  H      750.528    -447.911    -234.218
  P      752.563    -450.308    -237.488
  C      750.367    -449.143    -238.324
  O      751.729    -449.437    -238.552
  O      751.924    -451.623    -237.132
  O      754.008    -450.416    -238.152
  H      754.326    -449.607    -238.571
  H      750.057    -448.379    -239.043
  H      750.211    -448.753    -237.311
  H      749.760    -450.040    -238.485
  H      749.179    -449.470    -229.327
  H      748.605    -448.206    -230.388
  H      750.247    -448.787    -230.529

 3  4  5  6  7  8  9  10  11  12  22  25  29  30  31  32 0
 6-311+G(2d,p)
 ****
 33  36  37 0
 6-311+G(2d,p)
 ****
 1  2  13  14  15  16  17  18  19  20  21  23  24  26 0
 3-21G
 ****
 27  28  34  35  38  39  40  41  42  43  44  45  46  47  48 0
 3-21G
 ****


