%nproc=1
%NoSave
%Mem=1900MB
#P OB98/GEN NMR

erre ene a

0 1
  C     -288.022     187.633     132.061
  O     -289.243     187.164     132.627
  P     -289.147     186.203     133.907
  C     -291.383     187.122     134.929
  O     -290.626     186.007     134.491
  C     -292.848     186.730     135.188
  O     -293.440     186.311     133.929
  C     -293.053     185.556     136.139
  O     -294.406     185.575     136.611
  C     -292.859     184.368     135.215
  O     -293.400     183.173     135.772
  C     -293.520     184.858     133.904
  N     -292.873     184.334     132.683
  C     -293.264     183.079     132.213
  O     -294.120     182.376     132.752
  N     -292.609     182.623     131.099
  C     -291.649     183.298     130.400
  O     -291.031     182.807     129.459
  C     -291.374     184.670     130.856
  C     -291.977     185.111     131.962
  O     -288.408     187.115     135.000
  O     -288.413     184.928     133.651
  H     -294.347     183.364     135.978
  H     -287.480     186.824     135.108
  H     -292.833     181.689     130.785
  H     -290.668     185.261     130.287
  H     -291.770     186.118     132.324
  H     -294.576     184.568     133.865
  H     -291.791     184.200     135.052
  H     -292.364     185.530     136.989
  H     -293.401     187.609     135.535
  H     -291.325     187.924     134.187
  H     -290.945     187.522     135.853
  P     -294.658     185.859     138.168
  C     -296.592     187.500     137.738
  O     -296.206     186.260     138.306
  O     -293.687     186.781     138.829
  O     -294.620     184.387     138.815
  H     -294.464     184.456     139.773
  H     -297.638     187.434     137.427
  H     -295.979     187.751     136.863
  H     -296.488     188.291     138.486
  H     -288.236     188.259     131.220
  H     -287.432     186.799     131.743
  H     -287.481     188.194     132.794

 3  4  5  6  7  8  9  10  11  12  13  23  28  29  30  31  32 0
 6-311+G(2d,p)
 ****
 33  34 0
 6-311+G(2d,p)
 ****
 1  2  14  15  16  17  18  19  20  21  22  24  25  26  27 0
 3-21G
 ****
 35  36  37  38  39  40  41  42  43  44  45 0
 3-21G
 ****


