%nproc=1
%NoSave
%Mem=1900MB
#P OB98/GEN NMR

erre ene a

0 1
  C       71.661    -656.556     157.763
  O       70.435    -655.933     157.450
  H       71.527    -657.642     157.717
  H       71.985    -656.288     158.774
  H       72.431    -656.273     157.039
  P       70.338    -654.339     157.559
  C       70.569    -653.751     155.053
  O       69.705    -653.822     156.176
  C       69.763    -653.535     153.762
  O       69.140    -654.795     153.370
  C       68.627    -652.501     153.907
  O       68.445    -651.880     152.630
  C       67.445    -653.395     154.248
  O       66.226    -652.706     154.110
  C       67.714    -654.572     153.307
  N       66.957    -655.757     153.677
  C       65.605    -655.765     153.313
  O       65.111    -654.800     152.734
  N       64.844    -656.858     153.650
  C       65.357    -657.823     154.339
  N       64.543    -658.862     154.651
  C       66.770    -657.824     154.795
  C       67.504    -656.776     154.421
  O       71.592    -653.640     157.977
  O       69.154    -654.092     158.613
  H       65.988    -652.608     153.157
  H       69.529    -653.823     159.469
  H       67.152    -658.645     155.381
  H       68.547    -656.682     154.705
  H       67.463    -654.310     152.269
  H       67.501    -653.722     155.291
  H       68.837    -651.736     154.667
  H       70.449    -653.255     152.956
  H       63.581    -658.816     154.333
  H       71.105    -654.704     154.993
  H       64.835    -659.655     155.209
  H       71.291    -652.944     155.171
  P       68.164    -650.313     152.443
  C       69.885    -649.178     150.888
  O       68.635    -649.856     150.981
  O       68.709    -649.464     153.551
  O       66.563    -650.181     152.380
  H       66.300    -649.320     152.752
  H       70.081    -648.930     149.866
  H       70.663    -649.813     151.256
  H       69.849    -648.282     151.472

 6  7  8  9  10  11  12  13  14  15  16  26  30  31  32  33  35 0
 6-311+G(2d,p)
 ****
 37  38 0
 6-311+G(2d,p)
 ****
 1  2  3  4  5  17  18  19  20  21  22  23  24  25 0
 3-21G
 ****
 27  28  29  34  36  39  40  41  42  43  44  45  46 0
 3-21G
 ****


