%nproc=1
%NoSave
%Mem=1900MB
#P OB98/GEN NMR

erre ene a

0 1
  C     -652.240      83.059      28.398
  O     -651.363      81.935      28.271
  P     -650.094      81.942      27.300
  C     -648.409      80.436      28.537
  O     -648.755      81.778      28.170
  C     -648.147      80.297      30.045
  O     -649.310      80.664      30.809
  C     -647.756      78.892      30.479
  O     -646.404      78.607      30.195
  C     -648.094      78.965      31.986
  O     -647.015      79.583      32.715
  C     -649.351      79.846      31.992
  N     -652.972      77.959      35.056
  C     -651.887      78.708      35.301
  N     -650.950      79.163      34.440
  C     -651.263      78.794      33.185
  C     -652.354      78.031      32.766
  C     -653.235      77.593      33.775
  N     -654.355      76.811      33.509
  N     -652.320      77.829      31.410
  C     -651.253      78.485      30.989
  N     -650.586      79.087      32.034
  O     -650.047      83.094      26.351
  O     -650.184      80.561      26.487
  H     -647.137      79.363      33.664
  H     -649.765      80.660      25.609
  H     -651.732      78.960      36.346
  H     -650.926      78.555      29.976
  H     -649.347      80.527      32.850
  H     -648.238      77.972      32.432
  H     -648.406      78.160      30.019
  H     -647.333      81.014      30.293
  H     -647.509      80.144      27.969
  H     -654.908      76.515      34.281
  H     -654.519      76.507      32.556
  H     -649.242      79.774      28.231
  P     -646.007      77.948      28.780
  C     -643.885      79.319      28.312
  O     -645.211      79.072      27.929
  O     -647.134      77.268      28.064
  O     -644.844      76.943      29.171
  H     -644.847      76.173      28.530
  H     -643.875      79.981      29.194
  H     -643.371      79.826      27.504
  H     -643.360      78.394      28.556
  H     -653.015      82.829      29.099
  H     -652.675      83.281      27.446
  H     -651.686      83.907      28.743

 3  4  5  6  7  8  9  10  11  12  22  25  29  30  31  32 0
 6-311+G(2d,p)
 ****
 33  36  37 0
 6-311+G(2d,p)
 ****
 1  2  13  14  15  16  17  18  19  20  21  23  24  26 0
 3-21G
 ****
 27  28  34  35  38  39  40  41  42  43  44  45  46  47  48 0
 3-21G
 ****


