%nproc=1
%NoSave
%Mem=1900MB
#P OB98/GEN NMR

erre ene a

0 1
  C     -553.612    -243.087    -878.126
  O     -554.748    -242.337    -878.504
  H     -553.895    -244.136    -878.026
  H     -553.249    -242.730    -877.157
  H     -552.819    -243.003    -878.873
  P     -554.496    -240.865    -879.086
  C     -556.580    -239.756    -878.006
  O     -555.939    -240.168    -879.210
  C     -558.098    -239.821    -878.172
  O     -558.482    -239.014    -879.320
  C     -558.649    -241.239    -878.395
  O     -559.913    -241.352    -877.724
  C     -558.902    -241.272    -879.889
  O     -559.873    -242.247    -880.254
  C     -559.347    -239.828    -880.131
  N     -562.105    -239.436    -884.308
  C     -562.485    -239.621    -882.993
  N     -563.806    -239.792    -882.755
  N     -561.643    -239.646    -881.993
  C     -560.360    -239.447    -882.369
  C     -559.851    -239.260    -883.635
  C     -560.792    -239.253    -884.735
  O     -560.511    -239.107    -885.919
  N     -558.486    -239.154    -883.597
  C     -558.163    -239.304    -882.321
  N     -559.266    -239.483    -881.540
  O     -554.092    -241.154    -880.606
  O     -553.457    -240.063    -878.377
  H     -560.706    -242.037    -879.785
  H     -553.120    -241.190    -880.690
  H     -562.790    -239.446    -885.048
  H     -557.161    -239.306    -881.926
  H     -560.382    -239.652    -879.817
  H     -557.974    -241.492    -880.420
  H     -564.516    -239.762    -883.472
  H     -557.972    -242.038    -878.063
  H     -564.105    -239.892    -881.793
  H     -558.569    -239.369    -877.284
  H     -556.289    -238.727    -877.779
  H     -556.256    -240.402    -877.182
  P     -560.109    -242.570    -876.696
  C     -562.595    -242.586    -877.471
  O     -561.677    -242.746    -876.398
  O     -559.542    -241.970    -875.317
  O     -559.396    -243.822    -877.085
  H     -559.111    -242.682    -874.804
  H     -563.592    -242.734    -877.112
  H     -562.380    -243.305    -878.234
  H     -562.504    -241.599    -877.875

 6  7  8  9  10  11  12  13  14  15  26  29  33  34 0
 6-311+G(2d,p)
 ****
 36  38  39  40  41 0
 6-311+G(2d,p)
 ****
 1  2  3  4  5  16  17  18  19  20  21  22  23  24  25 0
 3-21G
 ****
 27  28  30  31  32  35  37  42  43  44  45  46  47 0
 3-21G
 ****
 48  49 0
 3-21G
 ****


