%nproc=1
%NoSave
%Mem=1900MB
#P OB98/GEN NMR

erre ene a

0 1
  C      -71.266    -151.864     -32.456
  O      -71.465    -152.931     -31.545
  P      -70.230    -153.560     -30.739
  C      -69.953    -155.667     -32.185
  O      -70.333    -155.152     -30.915
  C      -69.775    -157.183     -32.121
  O      -69.559    -157.684     -33.461
  C      -68.585    -157.617     -31.273
  O      -68.920    -158.832     -30.595
  C      -67.494    -157.922     -32.285
  O      -66.551    -158.874     -31.763
  C      -68.318    -158.414     -33.478
  N      -65.944    -160.575     -37.485
  C      -66.527    -161.110     -36.391
  N      -67.115    -160.477     -35.353
  C      -67.117    -159.149     -35.552
  C      -66.565    -158.458     -36.621
  C      -65.952    -159.229     -37.622
  N      -65.370    -158.679     -38.745
  N      -66.735    -157.096     -36.460
  C      -67.393    -156.972     -35.329
  N      -67.656    -158.184     -34.747
  O      -70.096    -153.099     -29.330
  O      -68.947    -153.182     -31.613
  H      -65.884    -159.031     -32.464
  H      -68.193    -152.960     -31.033
  H      -66.515    -162.196     -36.337
  H      -67.689    -156.036     -34.882
  H      -68.550    -159.483     -33.396
  H      -66.947    -157.003     -32.523
  H      -68.278    -156.856     -30.548
  H      -70.704    -157.629     -31.747
  H      -69.005    -155.205     -32.475
  H      -65.064    -159.314     -39.465
  H      -65.528    -157.699     -38.931
  H      -70.711    -155.398     -32.929
  P      -68.837    -158.784     -28.987
  C      -66.782    -160.377     -29.103
  O      -68.067    -160.127     -28.579
  O      -70.175    -158.548     -28.364
  O      -67.778    -157.605     -28.764
  H      -67.186    -157.500     -29.543
  H      -66.442    -161.352     -28.744
  H      -66.078    -159.616     -28.758
  H      -66.810    -160.393     -30.197
  H      -72.204    -151.586     -32.890
  H      -70.594    -152.175     -33.228
  H      -70.850    -151.025     -31.938

 3  4  5  6  7  8  9  10  11  12  22  25  29  30  31  32 0
 6-311+G(2d,p)
 ****
 33  36  37 0
 6-311+G(2d,p)
 ****
 1  2  13  14  15  16  17  18  19  20  21  23  24  26 0
 3-21G
 ****
 27  28  34  35  38  39  40  41  42  43  44  45  46  47  48 0
 3-21G
 ****


