%nproc=1
%NoSave
%Mem=1900MB
#P OB98/GEN NMR

erre ene a

0 1
  C       72.020     764.144     789.188
  O       71.172     764.648     788.151
  P       70.171     765.857     788.455
  C       69.113     767.835     787.181
  O       69.999     766.719     787.106
  C       68.365     767.992     785.868
  O       69.255     768.366     784.792
  C       67.673     766.723     785.379
  O       66.525     766.409     786.151
  C       67.391     767.086     783.919
  O       66.213     767.888     783.811
  C       68.634     767.906     783.561
  N       69.595     767.148     782.753
  C       69.138     766.754     781.489
  O       67.996     766.999     781.128
  N       70.043     766.117     780.653
  C       71.206     765.785     781.093
  N       72.075     765.201     780.201
  C       71.662     766.033     782.492
  C       70.825     766.725     783.247
  O       70.511     766.662     789.683
  O       68.741     765.169     788.612
  H       68.323     765.468     789.432
  H       66.074     768.047     782.851
  H       72.631     765.662     782.806
  H       71.058     766.977     784.265
  H       68.360     768.801     783.015
  H       67.232     766.179     783.301
  H       68.386     765.880     785.421
  H       67.625     768.814     785.998
  H       71.743     765.066     779.256
  H       69.711     768.729     787.379
  H       73.078     765.201     780.356
  H       68.423     767.679     788.011
  P       65.541     765.283     785.548
  C       64.596     763.012     786.399
  O       65.567     764.036     786.564
  O       66.329     764.738     784.262
  O       64.179     765.759     785.192
  H       65.700     764.527     783.558
  H       64.951     762.113     786.904
  H       64.416     762.783     785.351
  H       63.655     763.336     786.862
  H       72.616     763.343     788.804
  H       71.419     763.785     789.997
  H       72.659     764.927     789.538

 3  4  5  6  7  8  9  10  11  12  13  24  27  28  29  30  32 0
 6-311+G(2d,p)
 ****
 34  35 0
 6-311+G(2d,p)
 ****
 1  2  14  15  16  17  18  19  20  21  22  23  25  26 0
 3-21G
 ****
 31  33  36  37  38  39  40  41  42  43  44  45  46 0
 3-21G
 ****


