%nproc=1
%NoSave
%Mem=1900MB
#P OB98/GEN NMR

erre ene a

0 1
  C     -650.185     489.773     377.749
  O     -650.168     490.996     378.461
  H     -649.885     488.966     378.423
  H     -649.477     489.801     376.916
  H     -651.190     489.569     377.373
  P     -650.410     492.356     377.642
  C     -651.074     494.765     378.311
  O     -650.973     493.404     378.714
  C     -651.548     495.626     379.476
  O     -652.955     495.415     379.714
  C     -650.851     495.301     380.789
  O     -649.538     495.837     380.815
  C     -651.823     495.902     381.788
  O     -651.646     497.317     381.895
  C     -653.181     495.567     381.134
  N     -653.797     494.366     381.691
  C     -654.140     494.429     383.049
  O     -653.937     495.454     383.698
  N     -654.693     493.308     383.631
  C     -654.898     492.244     382.925
  N     -655.455     491.177     383.573
  C     -654.563     492.138     381.496
  C     -654.015     493.219     380.949
  O     -651.221     492.256     376.394
  O     -648.927     492.894     377.356
  H     -652.363     497.630     382.480
  H     -648.589     492.538     376.514
  H     -654.754     491.226     380.948
  H     -653.739     493.235     379.903
  H     -653.893     496.392     381.255
  H     -651.697     495.470     382.778
  H     -650.833     494.216     380.949
  H     -651.400     496.686     379.204
  H     -655.658     491.288     384.551
  H     -651.792     494.812     377.485
  H     -655.733     490.324     383.108
  H     -650.109     495.126     377.942
  P     -648.598     495.618     382.095
  C     -646.078     495.998     382.492
  O     -647.093     495.693     381.530
  O     -648.915     494.422     382.930
  O     -648.744     496.999     382.885
  H     -649.622     497.066     383.349
  H     -645.124     496.022     382.008
  H     -646.073     495.248     383.255
  H     -646.279     496.952     382.932

 6  7  8  9  10  11  12  13  14  15  16  26  30  31  32  33  35 0
 6-311+G(2d,p)
 ****
 37  38 0
 6-311+G(2d,p)
 ****
 1  2  3  4  5  17  18  19  20  21  22  23  24  25 0
 3-21G
 ****
 27  28  29  34  36  39  40  41  42  43  44  45  46 0
 3-21G
 ****


