%nproc=1
%NoSave
%Mem=1900MB
#P OB98/GEN NMR

erre ene a

0 1
  C       61.920    -528.539     -89.141
  O       63.217    -528.045     -89.505
  P       63.376    -527.172     -90.848
  C       64.236    -529.242     -92.207
  O       64.442    -527.901     -91.806
  C       65.267    -529.660     -93.258
  O       65.077    -528.904     -94.484
  C       66.712    -529.395     -92.859
  O       67.193    -530.365     -91.934
  C       67.418    -529.446     -94.206
  O       67.696    -530.812     -94.591
  C       66.354    -528.826     -95.141
  N       66.678    -527.453     -95.514
  C       67.888    -527.261     -96.190
  O       68.693    -528.170     -96.407
  N       68.159    -525.968     -96.565
  C       67.397    -524.869     -96.284
  O       67.704    -523.740     -96.640
  C       66.166    -525.127     -95.500
  C       65.883    -526.381     -95.166
  O       64.221    -525.907     -90.316
  O       62.110    -526.734     -91.494
  H       68.463    -531.099     -94.074
  H       64.015    -525.130     -90.876
  H       69.015    -525.815     -97.078
  H       65.553    -524.282     -95.246
  H       64.979    -526.588     -94.584
  H       66.264    -529.427     -96.064
  H       68.372    -528.912     -94.201
  H       66.800    -528.382     -92.443
  H       65.119    -530.724     -93.485
  H       63.227    -529.337     -92.633
  H       64.298    -529.892     -91.329
  P       67.092    -529.981     -90.377
  C       69.497    -528.936     -90.430
  O       68.603    -529.893     -89.869
  O       66.530    -531.351     -89.759
  O       66.233    -528.789     -90.109
  H       66.862    -532.135     -90.242
  H       68.968    -528.022     -90.710
  H       69.982    -529.378     -91.313
  H       70.259    -528.697     -89.685
  H       61.993    -529.094     -88.229
  H       61.550    -529.175     -89.918
  H       61.250    -527.716     -89.005

 3  4  5  6  7  8  9  10  11  12  13  23  28  29  30  31  32 0
 6-311+G(2d,p)
 ****
 33  34 0
 6-311+G(2d,p)
 ****
 1  2  14  15  16  17  18  19  20  21  22  24  25  26 0
 3-21G
 ****
 27  35  36  37  38  39  40  41  42  43  44  45 0
 3-21G
 ****


