%nproc=1
%NoSave
%Mem=1900MB
#P OB98/GEN NMR

erre ene a

0 1
  C     -893.403    -899.040     -49.850
  O     -894.793    -898.780     -49.931
  H     -893.093    -899.100     -48.816
  H     -893.203    -900.000     -50.327
  H     -892.833    -898.250     -50.373
  P     -895.293    -897.330     -49.443
  C     -896.393    -896.690     -51.707
  O     -895.353    -896.420     -50.757
  C     -896.803    -895.390     -52.419
  O     -897.253    -894.440     -51.441
  C     -895.673    -894.780     -53.232
  O     -896.193    -894.230     -54.458
  C     -895.173    -893.640     -52.332
  O     -894.553    -892.610     -53.074
  C     -896.483    -893.240     -51.670
  N     -894.133    -889.230     -49.474
  C     -894.283    -889.600     -50.777
  N     -894.903    -890.690     -51.282
  C     -895.483    -891.380     -50.296
  C     -895.463    -891.130     -48.912
  C     -894.723    -889.980     -48.538
  N     -894.563    -889.620     -47.214
  N     -896.153    -892.110     -48.200
  C     -896.633    -892.910     -49.167
  N     -896.233    -892.530     -50.432
  O     -894.003    -896.770     -48.673
  O     -896.483    -897.310     -48.551
  H     -895.193    -892.220     -53.718
  H     -893.943    -897.150     -47.780
  H     -893.773    -888.960     -51.489
  H     -897.223    -893.790     -48.968
  H     -897.093    -892.540     -52.284
  H     -894.473    -894.020     -51.613
  H     -894.853    -895.480     -53.456
  H     -897.683    -895.620     -53.067
  H     -897.263    -897.090     -51.181
  H     -893.983    -888.840     -46.999
  H     -894.933    -890.210     -46.489
  H     -896.043    -897.440     -52.414
  P     -896.523    -895.300     -55.586
  C     -898.983    -894.560     -55.950
  O     -898.123    -895.630     -55.586
  O     -895.863    -896.660     -55.092
  O     -895.973    -894.880     -56.948
  H     -895.343    -897.040     -55.775
  H     -900.000    -894.892     -55.914
  H     -898.749    -894.235     -56.942
  H     -898.849    -893.747     -55.268

 6  7  8  9  10  11  12  13  14  15  25  28  32  33  34  35 0
 6-311+G(2d,p)
 ****
 36  39  40 0
 6-311+G(2d,p)
 ****
 1  2  3  4  5  16  17  18  19  20  21  22  23  24 0
 3-21G
 ****
 26  27  29  30  31  37  38  41  42  43  44  45  46  47 0
 3-21G
 ****
 48 0
 3-21G
 ****


