%nproc=1
%NoSave
%Mem=1900MB
#P OB98/GEN NMR

erre ene a

0 1
  C       -9.759     189.940    -243.925
  O      -10.389     191.188    -244.152
  P      -11.123     191.398    -245.564
  C      -13.396     192.081    -244.494
  O      -12.680     191.138    -245.290
  C      -14.892     191.795    -244.548
  O      -15.154     190.454    -244.096
  C      -15.725     192.699    -243.655
  O      -15.891     193.969    -244.246
  C      -17.016     191.898    -243.537
  O      -17.904     192.185    -244.629
  C      -16.513     190.436    -243.603
  N      -16.602     189.753    -242.322
  C      -16.880     188.381    -242.382
  O      -17.049     187.831    -243.475
  N      -16.998     187.680    -241.206
  C      -16.854     188.297    -240.075
  N      -16.978     187.553    -238.942
  C      -16.586     189.746    -239.967
  C      -16.476     190.406    -241.119
  O      -10.671     190.116    -246.403
  O      -10.791     192.679    -246.257
  H      -18.653     191.561    -244.532
  H      -10.692     190.301    -247.363
  H      -16.474     190.211    -238.998
  H      -16.281     191.472    -241.136
  H      -17.099     189.861    -244.333
  H      -17.560     192.130    -242.617
  H      -15.261     192.796    -242.663
  H      -15.223     191.875    -245.594
  H      -17.168     186.565    -239.048
  H      -13.213     193.088    -244.881
  H      -16.861     187.936    -238.014
  H      -13.024     192.029    -243.466
  P      -15.178     195.220    -243.545
  C      -13.406     196.123    -245.163
  O      -13.680     195.214    -244.117
  O      -14.966     194.688    -242.046
  O      -15.898     196.525    -243.580
  H      -14.623     195.407    -241.483
  H      -12.328     196.130    -245.351
  H      -13.723     197.133    -244.886
  H      -13.922     195.810    -246.078
  H       -9.313     189.937    -242.952
  H       -9.002     189.783    -244.665
  H      -10.486     189.157    -243.986

 3  4  5  6  7  8  9  10  11  12  13  21  23  27  28  29  30  32 0
 6-311+G(2d,p)
 ****
 34  35 0
 6-311+G(2d,p)
 ****
 1  2  14  15  16  17  18  19  20  22  24  25  26 0
 3-21G
 ****
 31  33  36  37  38  39  40  41  42  43  44  45  46 0
 3-21G
 ****


