%nproc=1
%NoSave
%Mem=1900MB
#P OB98/GEN NMR

erre ene a

0 1
  C     -334.612      -6.085     208.852
  O     -334.619      -6.077     207.434
  H     -333.985      -5.260     209.204
  H     -334.203      -7.026     209.224
  H     -335.630      -5.941     209.234
  P     -335.468      -7.236     206.721
  C     -337.209      -5.470     205.951
  O     -336.978      -6.690     206.638
  C     -337.793      -5.742     204.565
  O     -339.015      -6.509     204.661
  C     -338.130      -4.483     203.773
  O     -336.979      -3.962     203.122
  C     -339.162      -5.026     202.787
  O     -338.532      -5.694     201.672
  C     -339.936      -6.020     203.649
  N     -344.829      -6.792     204.629
  C     -343.908      -7.597     203.999
  N     -344.380      -8.774     203.514
  N     -342.647      -7.292     203.854
  C     -342.341      -6.079     204.360
  C     -343.154      -5.187     205.022
  C     -344.543      -5.563     205.198
  O     -345.396      -4.911     205.807
  N     -342.462      -4.068     205.408
  C     -341.240      -4.265     204.948
  N     -341.120      -5.455     204.293
  O     -335.555      -8.384     207.837
  O     -334.899      -7.755     205.445
  H     -339.187      -5.811     200.960
  H     -335.598      -9.254     207.397
  H     -345.788      -7.091     204.725
  H     -340.419      -3.572     205.060
  H     -340.277      -6.896     203.076
  H     -339.771      -4.226     202.368
  H     -345.354      -8.909     203.300
  H     -338.598      -3.729     204.413
  H     -343.709      -9.367     203.033
  H     -337.064      -6.354     204.015
  H     -336.255      -4.936     205.838
  H     -337.894      -4.853     206.531
  P     -336.797      -2.369     203.099
  C     -334.650      -2.324     204.576
  O     -336.031      -1.970     204.451
  O     -338.281      -1.813     203.349
  O     -336.211      -1.824     201.840
  H     -338.344      -0.880     203.090
  H     -334.282      -1.994     205.525
  H     -334.090      -1.857     203.793
  H     -334.546      -3.386     204.503

 6  7  8  9  10  11  12  13  14  15  26  29  33  34 0
 6-311+G(2d,p)
 ****
 36  38  39  40  41 0
 6-311+G(2d,p)
 ****
 1  2  3  4  5  16  17  18  19  20  21  22  23  24  25 0
 3-21G
 ****
 27  28  30  31  32  35  37  42  43  44  45  46  47 0
 3-21G
 ****
 48  49 0
 3-21G
 ****


