%nproc=1
%NoSave
%Mem=1900MB
#P OB98/GEN NMR

erre ene a

0 1
  C      -80.115     419.862    -367.770
  O      -79.563     418.547    -367.857
  P      -78.890     417.957    -366.525
  C      -76.956     416.600    -367.604
  O      -78.189     416.563    -366.899
  C      -76.689     415.243    -368.259
  O      -76.829     414.155    -367.315
  C      -77.654     414.918    -369.393
  O      -77.338     415.658    -370.557
  C      -77.442     413.414    -369.523
  O      -76.242     413.135    -370.269
  C      -77.252     412.985    -368.059
  N      -79.103     409.446    -364.860
  C      -77.846     409.732    -365.258
  N      -77.436     410.693    -366.120
  C      -78.482     411.407    -366.568
  C      -79.818     411.235    -366.247
  C      -80.121     410.195    -365.349
  N      -81.405     409.901    -364.953
  N      -80.600     412.161    -366.910
  C      -79.752     412.860    -367.638
  N      -78.459     412.448    -367.456
  O      -80.148     417.531    -365.635
  O      -78.016     418.937    -365.816
  H      -75.492     413.472    -369.738
  H      -80.249     418.141    -364.880
  H      -77.064     409.108    -364.840
  H      -80.028     413.669    -368.305
  H      -76.471     412.226    -367.945
  H      -78.266     412.905    -370.035
  H      -78.684     415.126    -369.087
  H      -75.658     415.244    -368.635
  H      -76.139     416.846    -366.925
  H      -81.545     409.089    -364.367
  H      -82.179     410.391    -365.378
  H      -77.003     417.395    -368.353
  P      -78.483     415.826    -371.669
  C      -76.512     416.539    -373.161
  O      -77.828     416.841    -372.738
  O      -79.542     416.746    -370.913
  O      -79.006     414.546    -372.231
  H      -79.110     417.491    -370.450
  H      -76.209     417.283    -373.899
  H      -76.481     415.543    -373.616
  H      -75.829     416.587    -372.311
  H      -80.530     420.138    -368.717
  H      -79.345     420.555    -367.503
  H      -80.883     419.878    -367.025

 3  4  5  6  7  8  9  10  11  12  22  25  29  30  31  32 0
 6-311+G(2d,p)
 ****
 33  36  37 0
 6-311+G(2d,p)
 ****
 1  2  13  14  15  16  17  18  19  20  21  23  24  26 0
 3-21G
 ****
 27  28  34  35  38  39  40  41  42  43  44  45  46  47  48 0
 3-21G
 ****


