%nproc=1
%NoSave
%Mem=1900MB
#P OB98/GEN NMR

erre ene a

0 1
  C     -894.688    -104.923    -264.187
  O     -894.314    -103.656    -263.695
  P     -894.004    -103.524    -262.116
  C     -895.886    -101.772    -261.655
  O     -895.387    -103.096    -261.422
  C     -897.169    -101.555    -260.856
  O     -898.288    -102.189    -261.492
  C     -897.132    -102.113    -259.450
  O     -896.453    -101.259    -258.522
  C     -898.626    -102.164    -259.102
  O     -899.090    -100.865    -258.727
  C     -899.233    -102.592    -260.467
  N     -901.712    -106.456    -258.360
  C     -901.841    -105.105    -258.130
  N     -902.708    -104.724    -257.166
  N     -901.185    -104.193    -258.797
  C     -900.346    -104.694    -259.729
  C     -900.139    -106.032    -260.053
  C     -900.876    -107.039    -259.312
  O     -900.767    -108.247    -259.426
  N     -899.217    -106.168    -261.061
  C     -898.866    -104.929    -261.343
  N     -899.482    -104.007    -260.551
  O     -893.116    -102.192    -262.024
  O     -893.326    -104.719    -261.528
  H     -900.074    -100.922    -258.702
  H     -892.656    -102.176    -261.168
  H     -902.255    -107.125    -257.834
  H     -898.169    -104.658    -262.131
  H     -900.171    -102.064    -260.656
  H     -898.846    -102.850    -258.278
  H     -903.204    -105.377    -256.579
  H     -896.715    -103.130    -259.421
  H     -902.766    -103.743    -256.933
  H     -897.368    -100.469    -260.828
  H     -896.079    -101.633    -262.706
  H     -895.121    -101.047    -261.340
  P     -896.186    -101.838    -257.063
  C     -897.492     -99.872    -255.970
  O     -897.375    -101.270    -256.137
  O     -894.900    -101.009    -256.587
  O     -895.953    -103.305    -257.013
  H     -894.384    -101.525    -255.919
  H     -898.480     -99.649    -255.537
  H     -897.378     -99.337    -256.908
  H     -896.734     -99.524    -255.262
  H     -894.861    -104.860    -265.241
  H     -895.583    -105.246    -263.698
  H     -893.904    -105.626    -263.996

 3  4  5  6  7  8  9  10  11  12  23  26  30  31 0
 6-311+G(2d,p)
 ****
 33  35  36  37  38 0
 6-311+G(2d,p)
 ****
 1  2  13  14  15  16  17  18  19  20  21  22  24  25 0
 3-21G
 ****
 27  28  29  32  34  39  40  41  42  43  44  45  46  47  48  49 0
 3-21G
 ****


