%nproc=1
%NoSave
%Mem=1900MB
#P OB98/GEN NMR

erre ene a

0 1
  C      -66.272      -1.781     -22.199
  O      -65.852      -1.599     -23.544
  P      -66.081      -2.821     -24.562
  C      -65.109      -5.223     -24.687
  O      -64.939      -3.892     -24.212
  C      -63.763      -5.838     -25.047
  O      -63.184      -5.127     -26.157
  C      -62.723      -5.779     -23.939
  O      -62.904      -6.816     -22.986
  C      -61.439      -5.982     -24.730
  O      -61.239      -7.385     -24.978
  C      -61.743      -5.243     -26.045
  N      -57.602      -2.556     -27.169
  C      -57.821      -3.918     -27.243
  N      -56.797      -4.666     -27.708
  N      -58.939      -4.493     -26.890
  C      -59.887      -3.616     -26.483
  C      -59.789      -2.247     -26.364
  C      -58.528      -1.629     -26.710
  O      -58.255      -0.436     -26.603
  N      -60.969      -1.700     -25.931
  C      -61.787      -2.726     -25.822
  N      -61.168      -3.915     -26.117
  O      -65.602      -2.217     -25.964
  O      -67.476      -3.339     -24.627
  H      -61.247      -7.833     -24.111
  H      -66.045      -2.688     -26.697
  H      -56.728      -2.164     -27.470
  H      -62.827      -2.654     -25.535
  H      -61.400      -5.819     -26.912
  H      -60.551      -5.621     -24.203
  H      -55.965      -4.270     -28.116
  H      -62.709      -4.793     -23.462
  H      -56.952      -5.661     -27.804
  H      -63.934      -6.876     -25.361
  H      -65.744      -5.210     -25.578
  H      -65.607      -5.814     -23.911
  P      -62.801      -6.394     -21.438
  C      -60.873      -5.487     -19.953
  O      -61.267      -5.992     -21.214
  O      -62.953      -7.788     -20.669
  O      -63.818      -5.394     -21.006
  H      -63.308      -7.640     -19.771
  H      -61.415      -5.976     -19.138
  H      -61.059      -4.410     -19.918
  H      -59.805      -5.667     -19.819
  H      -66.061      -0.896     -21.637
  H      -65.747      -2.609     -21.771
  H      -67.324      -1.975     -22.177

 3  4  5  6  7  8  9  10  11  12  23  26  30  31  33  0
 6-311+G(2d,p)
 ****
 35  36  37  38 0
 6-311+G(2d,p)
 ****
 1  2  13  14  15  16  17  18  19  20  21  22  24  25  27  28  29 0
 3-21G
 ****
 32  34  39  40  41  42  43  44  45  46  47  48  49 0
 3-21G
 ****


