%nproc=1
%NoSave
%Mem=1900MB
#P OB98/GEN NMR

erre ene a

0 1
  C     -353.411     212.326     334.417
  O     -354.606     211.540     334.524
  P     -356.077     212.172     334.600
  C     -356.017     213.035     337.042
  O     -356.050     213.380     335.663
  C     -356.140     214.284     337.924
  O     -357.465     214.856     337.792
  C     -355.982     214.047     339.416
  O     -354.634     213.803     339.785
  C     -356.565     215.338     339.986
  O     -355.587     216.386     340.008
  C     -357.671     215.677     338.963
  N     -359.012     215.497     339.503
  C     -359.537     216.560     340.250
  O     -358.848     217.554     340.488
  N     -360.828     216.460     340.710
  C     -361.491     215.359     340.536
  N     -362.767     215.326     341.001
  C     -360.923     214.166     339.879
  C     -359.696     214.305     339.393
  O     -357.159     211.172     334.863
  O     -356.301     212.902     333.189
  H     -357.254     212.945     332.992
  H     -356.073     217.232     340.063
  H     -361.498     213.250     339.796
  H     -359.202     213.482     338.879
  H     -357.563     216.709     338.618
  H     -356.929     215.211     341.009
  H     -356.609     213.200     339.718
  H     -355.404     215.025     337.565
  H     -363.133     216.163     341.440
  H     -355.052     212.549     337.254
  H     -363.380     214.526     340.898
  H     -356.822     212.322     337.255
  P     -354.263     212.304     340.223
  C     -355.109     212.794     342.630
  O     -355.160     211.940     341.500
  O     -352.776     212.450     340.824
  O     -354.306     211.306     339.119
  H     -352.250     211.673     340.565
  H     -356.062     212.715     343.168
  H     -354.949     213.837     342.341
  H     -354.301     212.473     343.297
  H     -352.560     211.678     334.383
  H     -353.333     212.973     335.265
  H     -353.449     212.913     333.523

 3  4  5  6  7  8  9  10  11  12  13  24  27  28  29  30  32 0
 6-311+G(2d,p)
 ****
 34  35 0
 6-311+G(2d,p)
 ****
 1  2  14  15  16  17  18  19  20  21  22  23  25  26 0
 3-21G
 ****
 31  33  36  37  38  39  40  41  42  43  44  45  46 0
 3-21G
 ****


