%nproc=1
%NoSave
%Mem=1900MB
#P OB98/GEN NMR

erre ene a

0 1
  C       15.068      19.252      -8.795
  O       14.506      18.814     -10.012
  H       15.937      18.628      -8.568
  H       14.336      19.140      -7.990
  H       15.391      20.294      -8.855
  P       13.518      19.796     -10.800
  C       11.918      19.436      -8.807
  O       12.448      20.364      -9.745
  C       11.140      20.133      -7.691
  O       11.975      21.117      -7.040
  C        9.923      20.894      -8.219
  O        8.755      20.116      -8.400
  C        9.718      21.945      -7.132
  O        8.927      21.419      -6.053
  C       11.146      22.230      -6.662
  N       10.581      27.269      -7.287
  C        9.715      26.362      -6.708
  N        8.525      26.853      -6.298
  N        9.990      25.093      -6.566
  C       11.175      24.729      -7.110
  C       12.110      25.534      -7.721
  C       11.820      26.950      -7.824
  O       12.550      27.793      -8.334
  N       13.198      24.809      -8.146
  C       12.886      23.561      -7.861
  N       11.680      23.465      -7.207
  O       12.629      18.801     -11.690
  O       14.188      20.829     -11.653
  H        8.899      22.084      -5.341
  H       12.303      19.265     -12.481
  H       10.329      28.240      -7.345
  H       13.505      22.698      -8.079
  H       11.200      22.311      -5.569
  H        9.187      22.822      -7.514
  H        8.223      27.795      -6.491
  H       10.171      21.409      -9.152
  H        7.771      26.187      -6.117
  H       10.858      19.395      -6.931
  H       12.768      18.894      -8.387
  H       11.285      18.703      -9.314
  P        7.747      20.451      -9.598
  C        6.324      21.949      -8.016
  O        7.029      21.836      -9.233
  O        6.592      19.360      -9.405
  O        8.347      20.388     -10.960
  H        6.750      18.595      -9.991
  H        5.910      22.932      -7.933
  H        6.992      21.773      -7.199
  H        5.535      21.227      -7.993

 6  7  8  9  10  11  12  13  14  15  26  29  33  34 0
 6-311+G(2d,p)
 ****
 36  38  39  40  41 0
 6-311+G(2d,p)
 ****
 1  2  3  4  5  16  17  18  19  20  21  22  23  24  25 0
 3-21G
 ****
 27  28  30  31  32  35  37  42  43  44  45  46  47 0
 3-21G
 ****
 48  49 0
 3-21G
 ****


