%nproc=1
%NoSave
%Mem=1900MB
#P OB98/GEN NMR

erre ene a

0 1
  C      250.042     143.484     251.419
  O      250.717     144.227     252.413
  H      250.247     143.935     250.444
  H      248.961     143.506     251.596
  H      250.397     142.453     251.413
  P      250.501     143.763     253.938
  C      248.645     145.546     254.320
  O      248.997     144.168     254.330
  C      248.750     146.113     255.731
  O      248.524     147.541     255.703
  C      247.716     145.559     256.702
  O      248.061     144.267     257.177
  C      247.747     146.615     257.793
  O      248.820     146.383     258.726
  C      247.984     147.917     256.993
  N      246.767     148.714     256.864
  C      246.364     149.380     258.016
  O      246.973     149.314     259.092
  N      245.203     150.099     257.918
  C      244.405     150.185     256.809
  O      243.335     150.790     256.808
  C      244.892     149.472     255.615
  C      246.026     148.771     255.700
  O      251.403     144.797     254.762
  O      250.863     142.345     254.224
  H      252.236     144.367     255.035
  H      248.882     147.192     259.269
  H      244.884     150.582     258.744
  H      244.289     149.526     254.716
  H      246.396     148.218     254.837
  H      248.748     148.533     257.482
  H      246.822     146.626     258.371
  H      246.720     145.558     256.237
  H      249.768     145.932     256.105
  H      247.614     145.654     253.962
  H      249.313     146.076     253.634
  P      246.889     143.203     257.430
  C      246.623     143.864     259.962
  O      246.033     143.748     258.676
  O      247.713     141.967     258.028
  O      246.084     142.896     256.211
  H      248.457     142.247     258.587
  H      245.899     144.242     260.654
  H      247.455     144.535     259.914
  H      246.960     142.902     260.288

 6  7  8  9  10  11  12  13  14  15  16  27  31  32  33  34  35 0
 6-311+G(2d,p)
 ****
 36  37 0
 6-311+G(2d,p)
 ****
 1  2  3  4  5  17  18  19  20  21  22  23  24  25 0
 3-21G
 ****
 26  28  29  30  38  39  40  41  42  43  44  45 0
 3-21G
 ****


