%nproc=1
%NoSave
%Mem=1900MB
#P OB98/GEN NMR

erre ene a

0 1
  C     -376.856      42.963     422.045
  O     -377.164      44.342     422.022
  P     -378.677      44.838     421.815
  C     -377.926      46.118     419.705
  O     -378.815      45.142     420.245
  C     -377.505      45.738     418.287
  O     -376.963      44.401     418.254
  C     -378.642      45.750     417.274
  O     -378.965      47.079     416.896
  C     -378.054      44.898     416.162
  O     -377.194      45.671     415.312
  C     -377.240      43.848     416.951
  N     -377.928      42.564     417.042
  C     -377.722      41.685     415.973
  O     -377.030      42.022     415.010
  N     -378.355      40.461     415.993
  C     -379.134      40.161     416.982
  N     -379.739      38.945     416.942
  C     -379.396      41.068     418.115
  C     -378.770      42.244     418.079
  O     -379.113      45.940     422.727
  O     -379.528      43.493     421.997
  H     -376.760      45.028     414.703
  H     -379.575      43.221     422.943
  H     -380.067      40.779     418.914
  H     -378.910      42.975     418.866
  H     -376.264      43.681     416.475
  H     -378.827      44.461     415.520
  H     -379.519      45.248     417.694
  H     -376.712      46.435     417.972
  H     -379.554      38.360     416.136
  H     -377.041      46.169     420.345
  H     -380.392      38.622     417.642
  H     -378.413      47.099     419.718
  P     -380.457      47.616     417.068
  C     -381.264      46.263     415.044
  O     -381.447      46.541     416.424
  O     -380.683      49.029     416.635
  O     -380.731      47.464     418.641
  H     -381.172      48.274     418.967
  H     -381.741      45.311     414.816
  H     -380.202      46.195     414.797
  H     -381.731      47.047     414.451
  H     -375.804      42.835     422.192
  H     -377.143      42.518     421.115
  H     -377.388      42.492     422.845

 3  4  5  6  7  8  9  10  11  12  13  23  27  28  29  30  32 0
 6-311+G(2d,p)
 ****
 34  35 0
 6-311+G(2d,p)
 ****
 1  2  14  15  16  17  18  19  20  21  22  24  25  26 0
 3-21G
 ****
 31  33  36  37  38  39  40  41  42  43  44  45  46 0
 3-21G
 ****


