%nproc=1
%NoSave
%Mem=1900MB
#P OB98/GEN NMR

erre ene a

0 1
  C     -138.170     -36.881      77.851
  O     -138.035     -36.990      79.253
  H     -137.576     -37.670      77.380
  H     -137.802     -35.912      77.502
  H     -139.217     -37.010      77.557
  P     -138.758     -35.905      80.186
  C     -137.112     -33.935      79.909
  O     -138.396     -34.460      79.587
  C     -136.929     -32.552      79.265
  O     -137.187     -32.688      77.844
  C     -137.902     -31.505      79.836
  O     -137.243     -30.325      80.290
  C     -138.945     -31.363      78.733
  O     -139.608     -30.118      78.711
  C     -138.157     -31.694      77.461
  N     -138.986     -32.185      76.360
  C     -139.324     -31.276      75.359
  O     -138.968     -30.099      75.322
  N     -140.113     -31.773      74.348
  C     -140.594     -33.044      74.256
  O     -141.294     -33.432      73.323
  C     -140.226     -33.949      75.357
  C     -139.455     -33.488      76.344
  O     -138.517     -36.051      81.651
  O     -140.313     -36.062      79.830
  H     -140.156     -30.094      77.895
  H     -140.768     -36.528      80.554
  H     -140.350     -31.128      73.611
  H     -140.604     -34.965      75.319
  H     -139.163     -34.126      77.172
  H     -137.620     -30.814      77.102
  H     -139.714     -32.133      78.885
  H     -138.393     -31.883      80.743
  H     -135.885     -32.243      79.388
  H     -136.359     -34.630      79.529
  H     -137.011     -33.853      80.998
  P     -136.660     -30.106      81.761
  C     -138.002     -27.904      82.290
  O     -137.722     -29.259      82.610
  O     -135.233     -29.669      81.838
  O     -136.752     -31.573      82.430
  H     -136.003     -31.639      83.054
  H     -138.733     -27.521      82.971
  H     -138.379     -27.844      81.290
  H     -137.105     -27.326      82.368

 6  7  8  9  10  11  12  13  14  15  16  26  31  32  33  34  35 0
 6-311+G(2d,p)
 ****
 36  37 0
 6-311+G(2d,p)
 ****
 1  2  3  4  5  17  18  19  20  21  22  23  24  25 0
 3-21G
 ****
 27  28  29  30  38  39  40  41  42  43  44  45 0
 3-21G
 ****


