%nproc=1
%NoSave
%Mem=1900MB
#P OB98/GEN NMR

erre ene a

0 1
  C      514.127     119.528    -118.204
  O      513.244     120.516    -118.683
  H      514.888     119.341    -118.965
  H      513.582     118.598    -118.020
  H      514.625     119.850    -117.284
  P      512.232     121.210    -117.652
  C      513.982     123.107    -117.519
  O      513.077     122.277    -116.805
  C      514.171     124.448    -116.807
  O      512.973     125.248    -116.976
  C      514.371     124.264    -115.298
  O      515.145     125.314    -114.726
  C      512.952     124.341    -114.759
  O      512.893     124.704    -113.379
  C      512.331     125.376    -115.696
  N      507.711     126.524    -113.861
  C      508.948     126.715    -113.285
  N      508.962     127.295    -112.060
  N      510.075     126.355    -113.849
  C      509.908     125.724    -115.033
  C      508.735     125.452    -115.694
  C      507.493     125.886    -115.079
  O      506.368     125.716    -115.534
  N      508.961     124.780    -116.872
  C      510.271     124.648    -116.930
  N      510.894     125.224    -115.844
  O      511.940     120.060    -116.574
  O      510.960     121.736    -118.250
  H      511.955     124.840    -113.149
  H      511.100     120.231    -116.112
  H      506.879     126.848    -113.401
  H      510.817     124.161    -117.724
  H      512.515     126.393    -115.327
  H      512.493     123.352    -114.850
  H      508.118     127.406    -111.521
  H      514.829     123.307    -115.049
  H      509.809     127.164    -111.503
  H      514.991     125.009    -117.269
  H      513.558     123.254    -118.517
  H      514.938     122.599    -117.649
  P      516.518     124.943    -113.989
  C      518.084     125.519    -116.047
  O      517.641     124.593    -115.074
  O      516.209     123.535    -113.296
  O      516.985     125.964    -113.001
  H      516.250     123.615    -112.324
  H      518.834     125.063    -116.658
  H      518.495     126.379    -115.560
  H      517.258     125.816    -116.659

 6  7  8  9  10  11  12  13  14  15  26  29  33  34 0
 6-311+G(2d,p)
 ****
 36  38  39  40  41 0
 6-311+G(2d,p)
 ****
 1  2  3  4  5  16  17  18  19  20  21  22  23  24  25 0
 3-21G
 ****
 27  28  30  31  32  35  37  42  43  44  45  46  47 0
 3-21G
 ****
 48  49 0
 3-21G
 ****


