%nproc=1
%NoSave
%Mem=1900MB
#P OB98/GEN NMR

erre ene a

0 1
  C     -389.150    -481.263    -894.320
  O     -388.102    -481.648    -895.190
  P     -388.434    -482.819    -896.240
  C     -389.584    -485.161    -896.000
  O     -388.851    -484.093    -895.360
  C     -389.005    -486.513    -895.600
  O     -388.866    -486.617    -894.190
  C     -389.883    -487.692    -895.990
  O     -389.769    -487.991    -897.390
  C     -389.341    -488.773    -895.090
  O     -388.204    -489.436    -895.710
  C     -388.913    -487.996    -893.830
  N     -389.798    -488.238    -892.690
  C     -389.728    -489.522    -892.150
  O     -388.983    -490.395    -892.660
  N     -390.558    -489.825    -891.080
  C     -391.336    -488.911    -890.600
  N     -392.126    -489.278    -889.540
  C     -391.453    -487.559    -891.180
  C     -390.644    -487.272    -892.200
  O     -386.985    -483.223    -896.810
  O     -389.383    -482.442    -897.340
  H     -387.918    -490.117    -895.050
  H     -387.038    -483.590    -897.710
  H     -392.135    -486.842    -890.720
  H     -390.667    -486.310    -892.700
  H     -387.894    -488.268    -893.540
  H     -390.099    -489.548    -894.890
  H     -390.943    -487.483    -895.760
  H     -388.003    -486.627    -896.060
  H     -392.027    -490.218    -889.200
  H     -389.513    -485.040    -897.080
  H     -392.763    -488.634    -889.080
  H     -390.652    -485.083    -895.700
  P     -390.962    -488.783    -898.080
  C     -392.297    -490.887    -897.480
  O     -391.102    -490.113    -897.210
  O     -390.243    -489.297    -899.430
  O     -392.218    -488.017    -898.380
  H     -390.926    -489.756    -900.000
  H     -392.175    -491.849    -896.950
  H     -392.394    -491.072    -898.540
  H     -393.157    -490.352    -897.110
  H     -388.808    -480.482    -893.674
  H     -389.453    -482.104    -893.733
  H     -389.981    -480.912    -894.896

 3  4  5  6  7  8  9  10  11  12  13  21  23  27  28  29  30  32 0
 6-311+G(2d,p)
 ****
 34  35 0
 6-311+G(2d,p)
 ****
 1  2  14  15  16  17  18  19  20  22  24  25  26 0
 3-21G
 ****
 31  33  36  37  38  39  40  41  42  43  44  45  46 0
 3-21G
 ****


