%nproc=1
%NoSave
%Mem=1900MB
#P OB98/GEN NMR

erre ene a

0 1
  C      673.693     458.930     245.010
  O      673.190     457.809     245.703
  H      673.097     459.805     245.269
  H      673.608     458.756     243.930
  H      674.741     459.114     245.275
  P      674.124     456.509     245.791
  C      672.862     455.298     243.876
  O      674.097     455.822     244.335
  C      673.104     454.199     242.829
  O      673.712     454.808     241.656
  C      674.036     453.076     243.314
  O      673.592     451.829     242.766
  C      675.363     453.432     242.646
  O      676.220     452.303     242.506
  C      674.870     454.010     241.318
  N      677.741     454.205     237.210
  C      676.657     453.404     237.511
  N      676.304     452.475     236.588
  N      675.958     453.518     238.613
  C      676.407     454.501     239.433
  C      677.472     455.347     239.262
  C      678.238     455.208     238.036
  O      679.234     455.873     237.732
  N      677.630     456.167     240.347
  C      676.683     455.801     241.184
  N      675.908     454.788     240.670
  O      673.262     455.513     246.694
  O      675.488     456.739     246.360
  H      676.993     452.566     241.962
  H      673.536     455.591     247.629
  H      678.253     454.066     236.345
  H      676.523     456.208     242.176
  H      674.556     453.230     240.615
  H      675.893     454.194     243.246
  H      676.762     452.350     235.704
  H      674.120     452.990     244.399
  H      675.485     451.922     236.780
  H      672.137     453.791     242.524
  H      672.275     456.100     243.416
  H      672.297     454.897     244.719
  P      672.975     450.743     243.770
  C      675.290     449.765     244.444
  O      674.084     450.385     244.869
  O      672.896     449.415     242.880
  O      671.630     451.114     244.313
  H      672.112     448.891     243.131
  H      675.920     449.593     245.291
  H      675.793     450.404     243.748
  H      675.064     448.832     243.972

 6  7  8  9  10  11  12  13  14  15  26  29  33  34 0
 6-311+G(2d,p)
 ****
 36  38  39  40  41 0
 6-311+G(2d,p)
 ****
 1  2  3  4  5  16  17  18  19  20  21  22  23  24  25 0
 3-21G
 ****
 27  28  30  31  32  35  37  42  43  44  45  46  47 0
 3-21G
 ****
 48  49 0
 3-21G
 ****


