%nproc=1
%NoSave
%Mem=1900MB
#P OB98/GEN NMR

erre ene a

0 1
  C     -319.054     129.720     -25.099
  O     -318.350     129.774     -23.846
  P     -318.689     128.681     -22.710
  C     -320.925     129.388     -21.553
  O     -320.276     128.563     -22.509
  C     -322.379     128.950     -21.328
  O     -323.217     129.367     -22.444
  C     -322.561     127.426     -21.174
  O     -323.653     127.218     -20.269
  C     -322.967     127.006     -22.584
  O     -323.619     125.743     -22.625
  C     -323.860     128.191     -22.967
  N     -324.089     128.326     -24.407
  C     -325.055     127.511     -24.997
  O     -325.693     126.655     -24.398
  N     -325.266     127.710     -26.340
  C     -324.582     128.581     -27.146
  O     -324.791     128.684     -28.347
  C     -323.546     129.384     -26.480
  C     -323.359     129.228     -25.158
  O     -318.240     129.452     -21.373
  O     -317.961     127.384     -22.829
  H     -324.420     125.814     -22.073
  H     -317.715     128.848     -20.804
  H     -325.968     127.145     -26.777
  H     -322.991     130.097     -27.078
  H     -322.602     129.819     -24.648
  H     -324.828     128.099     -22.454
  H     -322.074     126.947     -23.211
  H     -321.663     126.921     -20.814
  H     -322.751     129.463     -20.439
  H     -320.920     130.425     -21.920
  H     -320.366     129.353     -20.615
  P     -323.370     126.399     -18.907
  C     -324.792     124.362     -19.731
  O     -323.560     124.837     -19.249
  O     -324.700     126.761     -18.084
  O     -322.106     126.785     -18.199
  H     -325.506     126.687     -18.617
  H     -325.231     125.043     -20.464
  H     -325.487     124.226     -18.900
  H     -324.624     123.392     -20.216
  H     -318.712     130.510     -25.735
  H     -320.103     129.833     -24.924
  H     -318.870     128.777     -25.571

 3  4  5  6  7  8  9  10  11  12  13  23  28  29  30  31  32 0
 6-311+G(2d,p)
 ****
 33  34 0
 6-311+G(2d,p)
 ****
 1  2  14  15  16  17  18  19  20  21  22  24  25  26 0
 3-21G
 ****
 27  35  36  37  38  39  40  41  42  43  44  45 0
 3-21G
 ****


