%nproc=1
%NoSave
%Mem=1900MB
#P OB98/GEN NMR

erre ene a

0 1
  C       39.972     231.232     -28.944
  O       40.411     232.319     -29.763
  P       41.614     233.273     -29.289
  C       41.939     235.453     -27.983
  O       41.027     234.415     -28.318
  C       41.337     236.524     -27.065
  O       40.405     237.364     -27.787
  C       40.596     235.981     -25.840
  O       40.807     236.939     -24.796
  C       39.148     235.997     -26.303
  O       38.225     235.939     -25.224
  C       39.124     237.285     -27.134
  N       38.023     237.310     -28.091
  C       36.974     238.195     -27.825
  O       36.975     238.870     -26.797
  N       35.921     238.259     -28.711
  C       35.877     237.438     -29.715
  N       34.800     237.531     -30.541
  C       36.921     236.428     -29.986
  C       37.955     236.429     -29.147
  O       42.483     233.783     -30.392
  O       42.464     232.346     -28.290
  H       38.284     236.776     -24.722
  H       43.403     232.616     -28.321
  H       36.826     235.749     -30.823
  H       38.779     235.729     -29.262
  H       39.031     238.166     -26.479
  H       38.962     235.128     -26.947
  H       40.932     234.988     -25.533
  H       42.162     237.177     -26.740
  H       34.092     238.222     -30.307
  H       42.284     235.928     -28.912
  H       34.609     236.870     -31.284
  H       42.822     235.009     -27.506
  P       41.457     236.534     -23.389
  C       40.490     235.817     -21.127
  O       40.275     236.581     -22.306
  O       42.678     237.312     -23.017
  O       41.778     234.969     -23.517
  H       42.422     234.712     -22.827
  H       39.733     236.089     -20.383
  H       41.485     236.015     -20.711
  H       40.396     234.752     -21.357
  H       39.168     230.721     -29.431
  H       39.636     231.609     -28.001
  H       40.784     230.553     -28.788

 3  4  5  6  7  8  9  10  11  12  13  23  27  28  29  30  32 0
 6-311+G(2d,p)
 ****
 34  35 0
 6-311+G(2d,p)
 ****
 1  2  14  15  16  17  18  19  20  21  22  24  25  26 0
 3-21G
 ****
 31  33  36  37  38  39  40  41  42  43  44  45  46 0
 3-21G
 ****


