%nproc=1
%NoSave
%Mem=1900MB
#P OB98/GEN NMR

erre ene a

0 1
  C      267.421     268.394    -370.369
  O      266.089     267.877    -370.446
  P      264.891     268.941    -370.308
  C      264.388     268.831    -372.860
  O      263.887     268.698    -371.534
  C      263.259     269.184    -373.827
  O      263.711     269.110    -375.193
  C      262.063     268.247    -373.755
  O      261.213     268.565    -372.659
  C      261.372     268.552    -375.077
  O      260.562     269.735    -374.948
  C      262.557     268.817    -376.019
  N      261.465     266.401    -380.340
  C      260.912     267.547    -379.800
  N      259.947     268.147    -380.534
  N      261.269     268.053    -378.651
  C      262.265     267.364    -378.047
  C      262.895     266.220    -378.476
  C      262.466     265.649    -379.737
  O      262.902     264.617    -380.243
  N      263.865     265.814    -377.598
  C      263.844     266.731    -376.650
  N      262.878     267.681    -376.869
  O      265.601     270.329    -370.682
  O      264.268     268.980    -368.952
  H      260.081     269.848    -375.791
  H      265.138     271.070    -370.248
  H      261.147     266.047    -381.226
  H      264.504     266.749    -375.790
  H      262.386     269.687    -376.661
  H      260.705     267.746    -375.403
  H      259.676     267.850    -381.456
  H      262.382     267.196    -373.736
  H      259.557     269.007    -380.169
  H      262.944     270.214    -373.621
  H      264.861     267.897    -373.174
  H      265.167     269.600    -372.866
  P      260.441     267.348    -371.955
  C      262.273     266.523    -370.314
  O      261.067     267.239    -370.486
  O      261.016     266.061    -372.719
  O      258.953     267.430    -372.035
  H      260.352     265.347    -372.725
  H      262.990     266.758    -371.107
  H      262.067     265.448    -370.313
  H      262.715     266.800    -369.354
  H      268.121     267.592    -370.474
  H      267.564     268.871    -369.422
  H      267.573     269.106    -371.153

 3  4  5  6  7  8  9  10  11  12  23  26  30  31  33  0
 6-311+G(2d,p)
 ****
 35  36  37  38 0
 6-311+G(2d,p)
 ****
 1  2  13  14  15  16  17  18  19  20  21  22  24  25  27  28  29 0
 3-21G
 ****
 32  34  39  40  41  42  43  44  45  46  47  48  49 0
 3-21G
 ****


