%nproc=1
%NoSave
%Mem=1900MB
#P OB98/GEN NMR

erre ene a

0 1
  C     -483.617    -897.058    -323.023
  O     -484.704    -896.983    -323.932
  H     -483.047    -896.123    -323.080
  H     -482.956    -897.887    -323.284
  H     -483.996    -897.183    -322.003
  P     -485.611    -898.293    -324.087
  C     -487.600    -896.822    -324.886
  O     -486.765    -897.942    -325.154
  C     -488.119    -896.257    -326.213
  O     -487.082    -895.467    -326.840
  C     -488.496    -897.322    -327.235
  O     -489.770    -897.897    -326.982
  C     -488.476    -896.502    -328.522
  O     -489.714    -895.810    -328.731
  C     -487.325    -895.528    -328.265
  N     -486.125    -895.891    -329.013
  C     -486.166    -895.641    -330.388
  O     -487.131    -895.151    -330.955
  N     -485.051    -896.020    -331.097
  C     -483.961    -896.660    -330.593
  O     -483.026    -897.034    -331.287
  C     -483.976    -896.918    -329.138
  C     -485.038    -896.524    -328.429
  O     -486.391    -898.366    -322.692
  O     -484.864    -899.550    -324.373
  H     -486.023    -899.080    -322.147
  H     -490.413    -896.498    -328.743
  H     -485.055    -895.849    -332.095
  H     -483.124    -897.421    -328.699
  H     -485.087    -896.710    -327.352
  H     -487.612    -894.510    -328.581
  H     -488.311    -897.146    -329.389
  H     -487.722    -898.086    -327.286
  H     -488.971    -895.599    -326.001
  H     -487.021    -896.039    -324.378
  H     -488.424    -897.131    -324.247
  P     -489.925    -899.480    -327.165
  C     -491.348    -899.460    -324.948
  O     -491.204    -899.890    -326.311
  O     -488.671    -900.000    -326.333
  O     -489.952    -899.880    -328.611
  H     -488.424    -899.370    -325.627
  H     -492.267    -899.836    -324.551
  H     -491.354    -898.391    -324.910
  H     -490.530    -899.833    -324.368

 6  7  8  9  10  11  12  13  14  15  16  27  31  32  33  34  35 0
 6-311+G(2d,p)
 ****
 36  37 0
 6-311+G(2d,p)
 ****
 1  2  3  4  5  17  18  19  20  21  22  23  24  25 0
 3-21G
 ****
 26  28  29  30  38  39  40  41  42  43  44  45 0
 3-21G
 ****


