%nproc=1
%NoSave
%Mem=1900MB
#P OB98/GEN NMR

erre ene a

0 1
  C      422.100    1110.298     513.864
  O      422.724    1110.815     512.709
  H      422.375    1109.246     513.968
  H      421.012    1110.369     513.758
  H      422.420    1110.835     514.762
  P      422.873    1112.398     512.557
  C      421.510    1112.750     510.390
  O      422.800    1112.765     510.997
  C      421.574    1112.340     508.920
  O      422.281    1113.341     508.165
  C      422.336    1111.021     508.718
  O      421.536    1109.855     508.837
  C      422.854    1111.175     507.291
  O      421.895    1110.707     506.330
  C      423.055    1112.693     507.146
  N      427.188    1114.571     504.787
  C      425.979    1114.165     504.242
  N      425.896    1114.237     502.893
  N      424.980    1113.719     504.951
  C      425.255    1113.610     506.270
  C      426.420    1113.966     506.930
  C      427.489    1114.531     506.141
  O      428.573    1114.920     506.583
  N      426.345    1113.672     508.263
  C      425.185    1113.062     508.405
  N      424.448    1113.084     507.235
  O      424.422    1112.661     512.900
  O      421.991    1113.221     513.452
  H      422.008    1109.749     506.231
  H      424.522    1113.540     513.317
  H      427.913    1114.935     504.194
  H      424.803    1112.641     509.326
  H      422.680    1113.055     506.181
  H      423.759    1110.593     507.141
  H      426.667    1114.489     502.286
  H      423.197    1110.960     509.391
  H      425.104    1113.771     502.430
  H      420.556    1112.290     508.512
  H      421.117    1113.764     510.477
  H      420.839    1112.086     510.942
  P      421.764    1108.815     510.035
  C      422.346    1106.561     508.814
  O      421.408    1107.360     509.513
  O      420.577    1109.163     511.041
  O      423.100    1108.897     510.700
  H      420.880    1109.726     511.763
  H      421.896    1105.624     508.558
  H      423.200    1106.389     509.435
  H      422.650    1107.066     507.921

 6  7  8  9  10  11  12  13  14  15  26  29  33  34 0
 6-311+G(2d,p)
 ****
 36  38  39  40  41 0
 6-311+G(2d,p)
 ****
 1  2  3  4  5  16  17  18  19  20  21  22  23  24  25 0
 3-21G
 ****
 27  28  30  31  32  35  37  42  43  44  45  46  47 0
 3-21G
 ****
 48  49 0
 3-21G
 ****


