%nproc=1
%NoSave
%Mem=1900MB
#P OB98/GEN NMR

erre ene a

0 1
  C      173.585    -661.618     488.597
  O      174.910    -662.154     488.495
  P      175.469    -662.974     489.758
  C      175.693    -665.148     488.352
  O      175.166    -664.527     489.511
  C      175.166    -666.575     488.226
  O      173.731    -666.627     488.098
  C      175.692    -667.313     486.999
  O      177.045    -667.708     487.185
  C      174.710    -668.465     486.905
  O      175.053    -669.499     487.854
  C      173.388    -667.799     487.328
  N      171.121    -669.457     483.054
  C      171.887    -670.102     483.979
  N      172.463    -669.579     485.073
  C      172.159    -668.277     485.198
  C      171.400    -667.500     484.345
  C      170.862    -668.140     483.226
  N      170.097    -667.497     482.273
  N      171.321    -666.190     484.809
  C      172.037    -666.175     485.907
  N      172.561    -667.403     486.187
  O      174.455    -662.563     490.927
  O      176.890    -662.645     490.112
  H      175.458    -669.049     488.629
  H      174.894    -661.979     491.568
  H      172.058    -671.153     483.792
  H      172.230    -665.298     486.512
  H      172.782    -668.450     487.971
  H      174.692    -668.926     485.912
  H      175.612    -666.678     486.108
  H      175.457    -667.124     489.137
  H      176.784    -665.151     488.386
  H      169.826    -668.021     481.442
  H      169.981    -666.499     482.337
  H      175.403    -664.549     487.470
  P      178.205    -666.749     486.603
  C      178.852    -666.077     489.006
  O      178.373    -665.618     487.750
  O      177.414    -665.954     485.460
  O      179.447    -667.446     486.182
  H      176.537    -665.648     485.759
  H      178.956    -665.211     489.667
  H      179.834    -666.541     488.897
  H      178.139    -666.794     489.447
  H      173.340    -661.099     487.694
  H      173.538    -660.939     489.422
  H      172.888    -662.416     488.751

 3  4  5  6  7  8  9  10  11  12  22  25  29  30  31  32 0
 6-311+G(2d,p)
 ****
 33  36  37 0
 6-311+G(2d,p)
 ****
 1  2  13  14  15  16  17  18  19  20  21  23  24  26 0
 3-21G
 ****
 27  28  34  35  38  39  40  41  42  43  44  45  46  47  48 0
 3-21G
 ****


