%nproc=1
%NoSave
%Mem=1900MB
#P OB98/GEN NMR

erre ene a

0 1
  C        7.306    -425.139    -943.191
  O        6.056    -425.629    -943.606
  P        5.911    -427.084    -944.273
  C        5.118    -426.939    -946.732
  O        4.731    -426.955    -945.354
  C        3.868    -426.907    -947.634
  O        3.095    -428.095    -947.473
  C        2.936    -425.742    -947.357
  O        3.454    -424.529    -947.884
  C        1.650    -426.234    -948.017
  O        1.668    -425.981    -949.432
  C        1.714    -427.759    -947.730
  N        0.843    -428.147    -946.646
  C       -0.489    -428.465    -946.995
  O       -0.849    -428.368    -948.174
  N       -1.375    -428.848    -946.013
  C       -0.973    -428.872    -944.776
  N       -1.889    -429.248    -943.834
  C        0.403    -428.529    -944.343
  C        1.240    -428.171    -945.323
  O        5.784    -428.224    -943.316
  O        7.222    -427.184    -945.207
  H        1.571    -425.001    -949.528
  H        8.043    -427.335    -944.655
  H        0.690    -428.563    -943.312
  H        2.286    -427.905    -945.105
  H        1.420    -428.330    -948.642
  H        0.767    -425.747    -947.588
  H        2.784    -425.649    -946.270
  H        4.230    -426.862    -948.682
  H       -2.825    -429.440    -944.167
  H        5.671    -427.856    -946.924
  H       -1.697    -429.271    -942.840
  H        5.772    -426.086    -946.904
  P        4.158    -423.470    -946.915
  C        2.492    -421.619    -947.555
  O        3.869    -422.008    -947.495
  O        5.598    -423.745    -946.612
  O        3.268    -423.517    -945.578
  H        3.854    -423.526    -944.813
  H        2.447    -420.527    -947.662
  H        1.954    -421.934    -946.666
  H        2.028    -422.074    -948.455
  H        7.186    -424.160    -942.777
  H        7.967    -425.092    -944.031
  H        7.717    -425.792    -942.450

 3  4  5  6  7  8  9  10  11  12  13  23  27  28  29  30  32 0
 6-311+G(2d,p)
 ****
 34  35 0
 6-311+G(2d,p)
 ****
 1  2  14  15  16  17  18  19  20  21  22  24  25  26 0
 3-21G
 ****
 31  33  36  37  38  39  40  41  42  43  44  45  46 0
 3-21G
 ****


