%nproc=1
%NoSave
%Mem=1900MB
#P OB98/GEN NMR

erre ene a

0 1
  C      320.626     404.643    -410.211
  O      319.215     404.494    -410.156
  P      318.312     405.771    -410.512
  C      317.419     406.324    -408.146
  O      317.123     405.805    -409.438
  C      316.262     407.153    -407.612
  O      316.211     408.413    -408.338
  C      314.882     406.488    -407.755
  O      314.133     406.691    -406.546
  C      314.204     407.294    -408.850
  O      312.784     407.245    -408.755
  C      314.819     408.673    -408.599
  N      311.691     412.036    -410.698
  C      311.638     411.448    -409.452
  N      310.568     411.756    -408.689
  N      312.551     410.628    -409.000
  C      313.579     410.432    -409.863
  C      313.748     410.970    -411.121
  C      312.698     411.832    -411.637
  O      312.645     412.318    -412.759
  N      314.926     410.556    -411.686
  C      315.469     409.764    -410.779
  N      314.662     409.621    -409.677
  O      317.596     405.331    -411.865
  O      319.067     407.054    -410.688
  H      312.550     407.543    -407.858
  H      317.774     405.985    -412.571
  H      310.958     412.651    -410.998
  H      316.421     409.256    -410.888
  H      314.382     409.119    -407.692
  H      314.502     406.894    -409.827
  H      309.850     412.406    -408.956
  H      314.918     405.419    -407.995
  H      310.524     411.342    -407.761
  H      316.466     407.407    -406.563
  H      318.313     406.949    -408.203
  H      317.620     405.483    -407.465
  P      314.066     405.426    -405.547
  C      311.457     405.524    -405.626
  O      312.634     405.517    -404.827
  O      315.099     405.827    -404.385
  O      314.398     404.124    -406.192
  H      315.432     405.017    -403.942
  H      311.672     405.294    -406.676
  H      310.992     406.508    -405.559
  H      310.767     404.771    -405.232
  H      321.093     403.716    -409.951
  H      320.932     405.402    -409.522
  H      320.917     404.923    -411.202

 3  4  5  6  7  8  9  10  11  12  23  26  30  31  33  0
 6-311+G(2d,p)
 ****
 35  36  37  38 0
 6-311+G(2d,p)
 ****
 1  2  13  14  15  16  17  18  19  20  21  22  24  25  27  28  29 0
 3-21G
 ****
 32  34  39  40  41  42  43  44  45  46  47  48  49 0
 3-21G
 ****


