%nproc=1
%NoSave
%Mem=1900MB
#P OB98/GEN NMR

erre ene a

0 1
  C     -371.949    -228.324    -421.713
  O     -372.807    -227.735    -420.757
  P     -372.211    -226.915    -419.518
  C     -374.291    -227.267    -418.038
  O     -372.904    -227.531    -418.205
  C     -374.908    -228.251    -417.048
  O     -374.842    -229.609    -417.559
  C     -374.186    -228.313    -415.706
  O     -374.230    -227.155    -414.883
  C     -374.749    -229.596    -415.128
  O     -376.038    -229.386    -414.541
  C     -374.875    -230.486    -416.394
  N     -373.831    -231.504    -416.452
  C     -374.209    -232.786    -416.075
  O     -375.350    -233.080    -415.709
  N     -373.225    -233.735    -416.112
  C     -371.905    -233.519    -416.419
  O     -371.068    -234.411    -416.376
  C     -371.560    -232.135    -416.793
  C     -372.520    -231.207    -416.794
  O     -372.293    -225.434    -419.631
  O     -370.708    -227.478    -419.400
  H     -375.911    -228.861    -413.728
  H     -370.647    -228.441    -419.243
  H     -373.476    -234.670    -415.824
  H     -370.537    -231.934    -417.061
  H     -372.292    -230.180    -417.063
  H     -375.855    -230.991    -416.410
  H     -374.105    -230.009    -414.344
  H     -373.118    -228.496    -415.899
  H     -375.969    -227.997    -416.933
  H     -374.793    -227.377    -419.009
  H     -374.429    -226.223    -417.707
  P     -373.061    -226.757    -413.863
  C     -374.798    -226.168    -412.031
  O     -373.633    -226.890    -412.375
  O     -372.269    -225.525    -414.191
  O     -372.099    -228.032    -413.960
  H     -371.175    -227.751    -413.817
  H     -375.014    -226.335    -410.972
  H     -375.653    -226.511    -412.622
  H     -374.645    -225.087    -412.187
  H     -372.534    -228.824    -422.457
  H     -371.308    -229.031    -421.229
  H     -371.356    -227.563    -422.177

 3  4  5  6  7  8  9  10  11  12  13  23  28  29  30  31  32 0
 6-311+G(2d,p)
 ****
 33  34 0
 6-311+G(2d,p)
 ****
 1  2  14  15  16  17  18  19  20  21  22  24  25  26  27 0
 3-21G
 ****
 35  36  37  38  39  40  41  42  43  44  45 0
 3-21G
 ****


