%nproc=1
%NoSave
%Mem=1900MB
#P OB98/GEN NMR

erre ene a

0 1
  C       44.405    -108.100      99.142
  O       44.292    -108.549     100.477
  H       45.424    -108.291      98.795
  H       44.206    -107.026      99.082
  H       43.703    -108.644      98.503
  P       42.893    -108.253     101.214
  C       42.509    -110.811     101.560
  O       42.691    -109.537     102.162
  C       42.783    -111.913     102.579
  O       44.186    -111.943     102.927
  C       42.043    -111.748     103.904
  O       40.679    -112.127     103.837
  C       42.851    -112.698     104.772
  O       42.510    -114.057     104.447
  C       44.285    -112.361     104.318
  N       44.909    -111.307     105.127
  C       45.950    -111.700     105.976
  O       46.309    -112.876     106.029
  N       46.542    -110.754     106.778
  C       46.148    -109.519     106.722
  N       46.772    -108.628     107.542
  C       45.067    -109.057     105.836
  C       44.498    -109.992     105.074
  O       41.809    -108.494     100.062
  O       42.782    -106.937     101.907
  H       42.794    -114.606     105.203
  H       40.899    -108.481     100.448
  H       44.764    -108.020     105.831
  H       43.696    -109.727     104.392
  H       44.930    -113.249     104.349
  H       42.668    -112.571     105.838
  H       42.147    -110.731     104.301
  H       42.542    -112.873     102.106
  H       47.468    -108.987     108.183
  H       43.202    -110.895     100.716
  H       46.437    -107.682     107.681
  H       41.484    -110.907     101.189
  P       39.648    -111.342     104.782
  C       37.627    -110.863     103.214
  O       38.175    -111.672     104.249
  O       39.862    -109.813     104.367
  O       39.859    -111.555     106.250
  H       39.746    -109.222     105.135
  H       36.644    -111.210     102.972
  H       38.250    -110.924     102.346
  H       37.575    -109.847     103.545

 6  7  8  9  10  11  12  13  14  15  16  26  30  31  32  33  35 0
 6-311+G(2d,p)
 ****
 37  38 0
 6-311+G(2d,p)
 ****
 1  2  3  4  5  17  18  19  20  21  22  23  24  25 0
 3-21G
 ****
 27  28  29  34  36  39  40  41  42  43  44  45  46 0
 3-21G
 ****


