%nproc=1
%NoSave
%Mem=1900MB
#P OB98/GEN NMR

erre ene a

0 1
  C      -14.257    -893.074     568.139
  O      -14.018    -892.994     569.525
  H      -14.917    -892.254     567.812
  H      -13.305    -892.974     567.612
  H      -14.712    -894.034     567.886
  P      -15.307    -893.074     570.487
  C      -15.071    -895.614     570.903
  O      -15.086    -894.314     571.485
  C      -14.942    -896.674     572.010
  O      -13.628    -896.544     572.630
  C      -16.007    -896.584     573.121
  O      -16.723    -897.814     573.223
  C      -15.214    -896.384     574.401
  O      -15.716    -897.134     575.501
  C      -13.802    -896.854     574.015
  N      -12.159    -896.174     578.801
  C      -12.919    -897.154     578.240
  N      -13.231    -897.334     576.940
  C      -12.649    -896.384     576.180
  C      -11.825    -895.354     576.596
  C      -11.603    -895.244     577.979
  N      -10.863    -894.234     578.545
  N      -11.410    -894.594     575.499
  C      -12.018    -895.124     574.470
  N      -12.795    -896.204     574.821
  O      -16.473    -893.564     569.496
  O      -15.670    -891.784     571.155
  H      -16.696    -897.074     575.471
  H      -17.261    -893.014     569.623
  H      -13.334    -897.854     578.934
  H      -11.974    -894.754     573.454
  H      -13.688    -897.944     574.117
  H      -15.210    -895.324     574.660
  H      -16.705    -895.744     572.961
  H      -14.976    -897.664     571.540
  H      -14.212    -895.704     570.218
  H      -10.863    -894.174     579.548
  H      -10.533    -893.484     577.953
  H      -15.993    -895.764     570.338
  P      -18.326    -897.754     572.958
  C      -18.272    -899.094     570.744
  O      -18.727    -899.024     572.083
  O      -18.469    -896.524     571.930
  O      -19.122    -897.524     574.212
  H      -19.354    -896.104     572.028
  H      -18.623    -900.000     570.295
  H      -17.202    -899.080     570.730
  H      -18.647    -898.256     570.195

 6  7  8  9  10  11  12  13  14  15  25  28  32  33  34  35 0
 6-311+G(2d,p)
 ****
 36  39  40 0
 6-311+G(2d,p)
 ****
 1  2  3  4  5  16  17  18  19  20  21  22  23  24 0
 3-21G
 ****
 26  27  29  30  31  37  38  41  42  43  44  45  46  47  48 0
 3-21G
 ****


