%nproc=1
%NoSave
%Mem=1900MB
#P OB98/GEN NMR

erre ene a

0 1
  C       55.097     -20.257     -37.047
  O       53.840     -20.704     -36.587
  P       52.485     -19.972     -37.025
  C       51.724     -19.464     -34.616
  O       52.133     -18.915     -35.864
  C       50.927     -18.427     -33.816
  O       51.816     -17.317     -33.475
  C       49.731     -17.851     -34.603
  O       48.482     -17.922     -33.915
  C       50.205     -16.449     -34.955
  O       49.158     -15.550     -35.263
  C       51.083     -16.105     -33.747
  N       51.962     -14.967     -34.000
  C       51.445     -13.698     -33.751
  O       50.313     -13.480     -33.328
  N       52.261     -12.646     -34.067
  C       53.465     -12.728     -34.700
  O       54.099     -11.738     -35.042
  C       53.942     -14.093     -34.973
  C       53.196     -15.135     -34.597
  O       51.358     -20.878     -37.391
  O       52.960     -19.010     -38.215
  H       48.657     -15.918     -36.014
  H       53.638     -18.357     -37.968
  H       51.898     -11.722     -33.892
  H       54.890     -14.188     -35.483
  H       53.522     -16.152     -34.786
  H       50.479     -15.886     -32.865
  H       50.834     -16.525     -35.852
  H       49.558     -18.419     -35.524
  H       50.596     -18.903     -32.888
  H       52.612     -19.749     -34.048
  H       51.135     -20.372     -34.784
  P       47.079     -18.289     -34.592
  C       45.782     -16.036     -34.520
  O       46.503     -16.972     -35.295
  O       46.114     -19.006     -33.707
  O       47.496     -19.211     -35.835
  H       46.775     -19.840     -36.030
  H       45.068     -15.520     -35.170
  H       46.477     -15.297     -34.110
  H       45.237     -16.520     -33.706
  H       55.867     -20.878     -36.640
  H       55.252     -19.246     -36.734
  H       55.125     -20.308     -38.115

 3  4  5  6  7  8  9  10  11  12  13  23  28  29  30  31  32 0
 6-311+G(2d,p)
 ****
 33  34 0
 6-311+G(2d,p)
 ****
 1  2  14  15  16  17  18  19  20  21  22  24  25  26  27 0
 3-21G
 ****
 35  36  37  38  39  40  41  42  43  44  45 0
 3-21G
 ****


