%nproc=1
%NoSave
%Mem=1900MB
#P OB98/GEN NMR

erre ene a

0 1
  C      -38.473    -711.790    1210.478
  O      -38.349    -711.380    1211.815
  P      -36.890    -711.017    1212.424
  C      -37.776    -710.733    1214.838
  O      -36.881    -711.443    1213.965
  C      -38.157    -711.584    1216.041
  O      -38.850    -712.805    1215.599
  C      -36.969    -712.059    1216.855
  O      -36.416    -711.018    1217.625
  C      -37.628    -713.174    1217.681
  O      -38.353    -712.656    1218.806
  C      -38.604    -713.788    1216.653
  N      -38.136    -715.038    1216.087
  C      -37.832    -716.047    1216.999
  O      -37.899    -715.832    1218.213
  N      -37.441    -717.289    1216.526
  C      -37.270    -717.452    1215.235
  N      -36.950    -718.706    1214.784
  C      -37.403    -716.351    1214.250
  C      -37.857    -715.184    1214.727
  O      -36.390    -709.630    1212.152
  O      -35.912    -712.111    1211.748
  H      -35.136    -711.646    1211.381
  H      -38.750    -713.434    1219.270
  H      -37.158    -716.519    1213.205
  H      -38.005    -714.342    1214.106
  H      -39.598    -713.973    1217.128
  H      -36.899    -713.894    1218.064
  H      -36.214    -712.497    1216.214
  H      -38.865    -711.003    1216.663
  H      -36.839    -719.430    1215.483
  H      -38.670    -710.470    1214.268
  H      -37.087    -718.998    1213.820
  H      -37.313    -709.787    1215.163
  P      -34.806    -710.994    1217.751
  C      -35.093    -709.442    1219.786
  O      -34.446    -710.571    1219.246
  O      -34.377    -709.729    1216.881
  O      -34.132    -712.257    1217.260
  H      -33.559    -709.902    1216.384
  H      -35.019    -709.496    1220.893
  H      -36.161    -709.443    1219.532
  H      -34.626    -708.519    1219.454
  H      -39.502    -711.984    1210.258
  H      -37.901    -712.681    1210.324
  H      -38.110    -711.017    1209.833

 3  4  5  6  7  8  9  10  11  12  13  24  27  28  29  30  32 0
 6-311+G(2d,p)
 ****
 34  35 0
 6-311+G(2d,p)
 ****
 1  2  14  15  16  17  18  19  20  21  22  23  25  26 0
 3-21G
 ****
 31  33  36  37  38  39  40  41  42  43  44  45  46 0
 3-21G
 ****


