%nproc=1
%NoSave
%Mem=1900MB
#P OB98/GEN NMR

erre ene a

0 1
  C     -142.762    -755.607    -315.608
  O     -142.806    -756.968    -316.007
  P     -144.229    -757.717    -316.021
  C     -145.373    -759.476    -314.442
  O     -144.313    -758.561    -314.656
  C     -145.262    -760.082    -313.031
  O     -144.074    -760.921    -312.963
  C     -145.156    -759.044    -311.898
  O     -145.857    -759.587    -310.772
  C     -143.663    -758.994    -311.626
  O     -143.364    -758.497    -310.330
  C     -143.284    -760.463    -311.851
  N     -141.857    -760.664    -312.117
  C     -140.985    -760.684    -311.027
  O     -141.351    -760.514    -309.860
  N     -139.658    -760.865    -311.322
  C     -139.128    -760.968    -312.585
  O     -137.924    -761.117    -312.793
  C     -140.081    -760.901    -313.699
  C     -141.382    -760.759    -313.421
  O     -143.980    -758.824    -317.152
  O     -145.388    -756.804    -316.273
  H     -143.072    -759.165    -317.158
  H     -142.502    -758.856    -310.064
  H     -139.009    -760.916    -310.551
  H     -139.694    -760.962    -314.698
  H     -142.117    -760.703    -314.222
  H     -143.583    -761.063    -310.973
  H     -143.180    -758.340    -312.368
  H     -145.588    -758.073    -312.183
  H     -146.138    -760.742    -312.876
  H     -145.306    -760.283    -315.179
  H     -146.323    -758.972    -314.576
  P     -146.317    -758.563    -309.604
  C     -145.040    -757.005    -307.934
  O     -144.998    -758.095    -308.821
  O     -147.008    -759.595    -308.583
  O     -147.259    -757.479    -310.056
  H     -146.460    -760.375    -308.406
  H     -144.176    -757.056    -307.263
  H     -145.949    -756.994    -307.334
  H     -144.980    -756.070    -308.506
  H     -141.752    -755.255    -315.652
  H     -143.128    -755.517    -314.607
  H     -143.372    -755.023    -316.265

 3  4  5  6  7  8  9  10  11  12  13  24  28  29  30  31  32 0
 6-311+G(2d,p)
 ****
 33  34 0
 6-311+G(2d,p)
 ****
 1  2  14  15  16  17  18  19  20  21  22  23  25  26  27 0
 3-21G
 ****
 35  36  37  38  39  40  41  42  43  44  45 0
 3-21G
 ****


