%nproc=1
%NoSave
%Mem=1900MB
#P OB98/GEN NMR

erre ene a

0 1
  C      -49.884     -47.038     145.287
  O      -49.791     -45.749     144.665
  P      -48.497     -44.805     144.785
  C      -47.073     -45.132     142.660
  O      -48.046     -44.333     143.318
  C      -47.406     -45.333     141.177
  O      -48.752     -45.883     141.035
  C      -47.346     -44.047     140.333
  O      -46.790     -44.416     139.065
  C      -48.818     -43.681     140.211
  O      -49.097     -42.783     139.153
  C      -49.420     -45.080     140.040
  N      -50.869     -45.162     140.196
  C      -51.561     -46.075     139.390
  O      -50.982     -46.746     138.537
  N      -52.920     -46.196     139.556
  C      -53.537     -45.472     140.436
  N      -54.880     -45.649     140.554
  C      -52.852     -44.487     141.290
  C      -51.534     -44.387     141.120
  O      -47.386     -45.410     145.580
  O      -49.015     -43.458     145.478
  H      -48.317     -43.111     146.067
  H      -48.520     -42.004     139.261
  H      -53.402     -43.907     142.017
  H      -50.952     -43.705     141.732
  H      -49.136     -45.480     139.061
  H      -49.140     -43.208     141.143
  H      -46.726     -43.261     140.774
  H      -46.717     -46.085     140.774
  H      -55.315     -46.344     139.957
  H      -47.039     -46.111     143.150
  H      -55.457     -45.145     141.211
  H      -46.089     -44.661     142.771
  P      -45.606     -43.536     138.433
  C      -43.665     -45.136     139.118
  O      -44.401     -44.532     138.074
  O      -45.029     -42.781     139.727
  O      -46.004     -42.541     137.392
  H      -44.603     -41.951     139.451
  H      -43.522     -46.193     138.880
  H      -44.173     -45.061     140.082
  H      -42.688     -44.652     139.191
  H      -50.836     -47.473     145.065
  H      -49.779     -46.931     146.346
  H      -49.106     -47.671     144.914

 3  4  5  6  7  8  9  10  11  12  13  24  27  28  29  30  32 0
 6-311+G(2d,p)
 ****
 34  35 0
 6-311+G(2d,p)
 ****
 1  2  14  15  16  17  18  19  20  21  22  23  25  26 0
 3-21G
 ****
 31  33  36  37  38  39  40  41  42  43  44  45  46 0
 3-21G
 ****


