%nproc=1
%NoSave
%Mem=1900MB
#P OB98/GEN NMR

erre ene a

0 1
  C      336.625     549.858     269.385
  O      337.581     548.954     268.866
  H      336.390     549.589     270.418
  H      337.050     550.866     269.373
  H      335.714     549.850     268.781
  P      337.076     547.474     268.511
  C      337.874     546.727     270.864
  O      336.822     546.730     269.914
  C      337.533     545.808     272.040
  O      336.623     546.514     272.927
  C      336.865     544.485     271.630
  O      337.366     543.442     272.474
  C      335.398     544.722     271.961
  O      334.689     543.512     272.211
  C      335.511     545.633     273.176
  N      330.656     545.202     274.626
  C      331.719     544.382     274.780
  N      332.994     544.597     274.408
  C      333.139     545.835     273.889
  C      332.150     546.783     273.679
  C      330.850     546.420     274.056
  N      329.749     547.216     273.849
  N      332.686     547.903     273.071
  C      333.964     547.626     272.899
  N      334.284     546.381     273.372
  O      338.408     546.778     267.956
  O      335.953     547.393     267.530
  H      333.757     543.730     272.419
  H      338.490     546.945     266.999
  H      331.512     543.424     275.248
  H      334.680     548.262     272.406
  H      335.710     545.078     274.104
  H      334.916     545.240     271.121
  H      337.016     544.217     270.580
  H      338.453     545.616     272.607
  H      338.022     547.748     271.241
  H      328.839     546.830     274.054
  H      329.860     548.074     273.331
  H      338.801     546.398     270.379
  P      338.442     542.432     271.840
  C      337.461     540.131     272.568
  O      337.708     541.048     271.504
  O      339.376     542.066     273.085
  O      339.231     543.020     270.712
  H      340.291     541.913     272.787
  H      336.968     539.263     272.183
  H      336.840     540.597     273.304
  H      338.390     539.845     273.015

 6  7  8  9  10  11  12  13  14  15  25  28  32  33  34  35 0
 6-311+G(2d,p)
 ****
 36  39  40 0
 6-311+G(2d,p)
 ****
 1  2  3  4  5  16  17  18  19  20  21  22  23  24 0
 3-21G
 ****
 26  27  29  30  31  37  38  41  42  43  44  45  46  47 0
 3-21G
 ****
 48 0
 3-21G
 ****


