%nproc=1
%NoSave
%Mem=1900MB
#P OB98/GEN NMR

erre ene a

0 1
  C       18.930      -7.657     207.621
  O       20.132      -8.287     208.015
  H       18.284      -7.506     208.490
  H       19.167      -6.683     207.185
  H       18.412      -8.262     206.872
  P       19.987      -9.732     208.699
  C       18.735      -8.959     210.827
  O       19.937      -9.488     210.287
  C       19.032      -7.689     211.621
  O       20.294      -7.873     212.314
  C       19.142      -6.421     210.758
  O       18.327      -5.373     211.296
  C       20.599      -6.014     210.880
  O       20.784      -4.604     210.864
  C       21.008      -6.635     212.209
  N       25.216      -5.599     214.894
  C       23.911      -5.571     215.236
  N       22.844      -5.952     214.505
  C       23.233      -6.432     213.312
  C       24.527      -6.546     212.831
  C       25.549      -6.082     213.675
  N       26.877      -6.059     213.306
  N       24.533      -7.080     211.556
  C       23.261      -7.246     211.254
  N       22.438      -6.854     212.279
  O       21.427     -10.395     208.462
  O       18.895     -10.577     208.136
  H       20.296      -4.255     210.095
  H       21.316     -11.200     207.923
  H       23.691      -5.185     216.228
  H       22.880      -7.597     210.303
  H       20.715      -6.005     213.059
  H       21.162      -6.450     210.044
  H       18.862      -6.597     209.714
  H       18.259      -7.564     212.387
  H       18.276      -9.698     211.495
  H       27.530      -5.602     213.922
  H       27.117      -6.312     212.356
  H       18.039      -8.746     210.010
  P       16.975      -5.039     210.491
  C       18.036      -3.035     209.221
  O       17.004      -3.481     210.094
  O       15.847      -5.130     211.623
  O       16.696      -5.979     209.368
  H       15.163      -5.775     211.360
  H       17.928      -1.985     209.048
  H       17.967      -3.559     208.290
  H       18.989      -3.227     209.668

 6  7  8  9  10  11  12  13  14  15  25  28  32  33  34  35 0
 6-311+G(2d,p)
 ****
 36  39  40 0
 6-311+G(2d,p)
 ****
 1  2  3  4  5  16  17  18  19  20  21  22  23  24 0
 3-21G
 ****
 26  27  29  30  31  37  38  41  42  43  44  45  46  47  48 0
 3-21G
 ****


