%nproc=1
%NoSave
%Mem=1900MB
#P OB98/GEN NMR

erre ene a

0 1
  C       10.980    -897.440     186.218
  O        9.669    -897.260     185.706
  H       11.449    -896.460     186.326
  H       11.581    -898.030     185.516
  H       10.942    -897.940     187.185
  P        8.832    -898.600     185.427
  C        6.814    -896.970     185.194
  O        7.481    -898.130     184.687
  C        5.853    -896.420     184.136
  O        5.012    -897.480     183.619
  C        4.921    -895.340     184.646
  O        5.540    -894.070     184.659
  C        3.774    -895.420     183.641
  O        4.097    -894.720     182.428
  C        3.681    -896.930     183.398
  N       -1.189    -897.140     184.763
  C       -0.559    -896.360     183.829
  N       -1.332    -895.450     183.193
  N        0.722    -896.430     183.537
  C        1.381    -897.370     184.289
  C        0.867    -898.210     185.234
  C       -0.560    -898.130     185.521
  O       -1.189    -898.840     186.305
  N        1.839    -899.020     185.762
  C        2.944    -898.630     185.138
  N        2.710    -897.610     184.244
  O        8.318    -899.020     186.887
  O        9.575    -899.710     184.762
  H        4.536    -893.870     182.657
  H        8.226    -900.000     186.925
  H       -2.165    -897.040     184.940
  H        3.929    -899.070     185.312
  H        3.399    -897.170     182.365
  H        2.865    -894.970     184.047
  H       -2.192    -895.110     183.586
  H        4.543    -895.580     185.671
  H       -0.862    -894.850     182.508
  H        6.460    -896.040     183.300
  H        7.564    -896.200     185.430
  H        6.274    -897.240     186.092
  P        5.290    -893.110     185.905
  C        7.237    -891.660     184.955
  O        5.944    -891.680     185.538
  O        6.267    -893.670     187.034
  O        3.863    -893.040     186.370
  H        6.004    -893.340     187.921
  H        7.530    -890.647     184.772
  H        7.220    -892.199     184.031
  H        7.936    -892.118     185.623

 6  7  8  9  10  11  12  13  14  15  26  29  33  34 0
 6-311+G(2d,p)
 ****
 36  38  39  40  41 0
 6-311+G(2d,p)
 ****
 1  2  3  4  5  16  17  18  19  20  21  22  23  24  25 0
 3-21G
 ****
 27  28  30  31  32  35  37  42  43  44  45  46  47 0
 3-21G
 ****
 48  49 0
 3-21G
 ****


