%nproc=1
%NoSave
%Mem=1900MB
#P OB98/GEN NMR

erre ene a

0 1
  C      -38.457      21.435     100.875
  O      -38.309      20.234     101.603
  H      -38.481      21.198      99.808
  H      -37.612      22.102     101.068
  H      -39.392      21.929     101.149
  P      -38.191      20.362     103.197
  C      -35.707      19.612     103.335
  O      -37.060      19.322     103.659
  C      -34.861      18.355     103.501
  O      -33.474      18.657     103.226
  C      -34.879      17.776     104.909
  O      -36.058      17.037     105.171
  C      -33.632      16.906     104.877
  O      -33.902      15.621     104.294
  C      -32.675      17.729     103.987
  N      -31.644      18.404     104.767
  C      -30.738      19.170     104.039
  O      -30.784      19.283     102.814
  N      -29.748      19.774     104.763
  C      -29.557      19.659     106.109
  O      -28.605      20.167     106.687
  C      -30.553      18.849     106.830
  C      -31.531      18.259     106.136
  O      -39.553      19.700     103.716
  O      -38.009      21.753     103.707
  H      -40.181      20.397     103.981
  H      -33.041      15.161     104.238
  H      -29.076      20.324     104.251
  H      -30.434      18.743     107.901
  H      -32.265      17.642     106.643
  H      -32.174      17.075     103.261
  H      -33.245      16.723     105.879
  H      -34.734      18.572     105.649
  H      -35.201      17.608     102.771
  H      -35.329      20.390     104.008
  H      -35.659      19.984     102.307
  P      -36.840      17.305     106.546
  C      -35.003      16.276     108.117
  O      -36.316      16.208     107.591
  O      -38.312      16.811     106.165
  O      -36.751      18.715     107.021
  H      -38.313      16.046     105.566
  H      -34.846      15.460     108.792
  H      -34.876      17.201     108.640
  H      -34.295      16.218     107.317

 6  7  8  9  10  11  12  13  14  15  16  27  31  32  33  34  35 0
 6-311+G(2d,p)
 ****
 36  37 0
 6-311+G(2d,p)
 ****
 1  2  3  4  5  17  18  19  20  21  22  23  24  25 0
 3-21G
 ****
 26  28  29  30  38  39  40  41  42  43  44  45 0
 3-21G
 ****


