%nproc=1
%NoSave
%Mem=1900MB
#P OB98/GEN NMR

erre ene a

0 1
  C      107.340    -336.779    -223.902
  O      107.181    -335.579    -224.666
  P      105.776    -334.894    -224.980
  C      103.964    -335.202    -226.865
  O      105.044    -335.757    -226.118
  C      104.023    -335.550    -228.368
  O      105.112    -334.822    -228.992
  C      104.331    -337.033    -228.558
  O      103.293    -337.996    -228.495
  C      105.151    -337.090    -229.839
  O      104.349    -337.348    -230.998
  C      105.771    -335.692    -229.927
  N      110.308    -337.820    -230.972
  C      109.049    -338.197    -231.391
  N      108.980    -339.310    -232.161
  N      107.960    -337.546    -231.081
  C      108.161    -336.509    -230.247
  C      109.358    -336.039    -229.745
  C      110.571    -336.727    -230.139
  O      111.718    -336.430    -229.810
  N      109.175    -334.972    -228.912
  C      107.865    -334.796    -228.884
  N      107.205    -335.702    -229.694
  O      105.808    -333.413    -225.183
  O      104.901    -335.188    -223.657
  H      103.851    -336.539    -231.210
  H      104.301    -334.423    -223.541
  H      111.120    -338.339    -231.257
  H      107.346    -334.036    -228.311
  H      105.623    -335.255    -230.920
  H      105.895    -337.902    -229.794
  H      109.765    -339.922    -232.326
  H      105.026    -337.324    -227.756
  H      108.052    -339.714    -232.278
  H      103.111    -335.229    -228.872
  H      104.011    -334.118    -226.723
  H      103.010    -335.538    -226.449
  P      103.133    -339.146    -227.393
  C      103.758    -341.624    -227.134
  O      103.852    -340.462    -227.954
  O      101.579    -339.541    -227.471
  O      103.514    -338.759    -225.995
  H      101.319    -340.047    -226.680
  H      104.524    -342.333    -227.443
  H      102.770    -342.074    -227.261
  H      103.913    -341.367    -226.081
  H      108.379    -337.026    -223.838
  H      106.812    -337.578    -224.379
  H      106.948    -336.630    -222.918

 3  4  5  6  7  8  9  10  11  12  23  26  30  31 0
 6-311+G(2d,p)
 ****
 33  35  36  37  38 0
 6-311+G(2d,p)
 ****
 1  2  13  14  15  16  17  18  19  20  21  22  24  25 0
 3-21G
 ****
 27  28  29  32  34  39  40  41  42  43  44  45  46  47  48  49 0
 3-21G
 ****


