%nproc=1
%NoSave
%Mem=1900MB
#P OB98/GEN NMR

erre ene a

0 1
  C      -37.856     -27.359     115.344
  O      -36.469     -27.099     115.434
  H      -38.386     -26.654     115.989
  H      -38.078     -28.375     115.679
  H      -38.205     -27.223     114.316
  P      -35.470     -28.011     114.576
  C      -36.145     -27.058     112.274
  O      -36.159     -28.185     113.138
  C      -35.646     -27.465     110.892
  O      -34.251     -27.820     110.946
  C      -36.379     -28.668     110.298
  O      -37.611     -28.264     109.726
  C      -35.361     -29.127     109.268
  O      -35.408     -28.260     108.119
  C      -34.039     -28.930     110.030
  N      -32.291     -33.681     109.785
  C      -32.687     -32.828     108.773
  N      -32.650     -33.331     107.520
  N      -33.099     -31.603     108.973
  C      -33.148     -31.264     110.282
  C      -32.799     -32.026     111.373
  C      -32.291     -33.360     111.135
  O      -31.914     -34.142     112.002
  N      -33.046     -31.364     112.548
  C      -33.508     -30.190     112.166
  N      -33.603     -30.084     110.799
  O      -35.047     -29.305     115.204
  O      -34.227     -27.052     114.276
  H      -35.279     -27.352     108.450
  H      -33.533     -27.152     114.952
  H      -32.001     -34.620     109.568
  H      -33.785     -29.384     112.834
  H      -33.213     -28.655     109.365
  H      -35.535     -30.143     108.916
  H      -32.620     -34.328     107.346
  H      -36.511     -29.466     111.035
  H      -32.984     -32.740     106.771
  H      -35.731     -26.592     110.234
  H      -35.480     -26.310     112.716
  H      -37.149     -26.630     112.190
  P      -38.768     -29.334     109.412
  C      -39.696     -29.102     111.813
  O      -39.139     -29.971     110.835
  O      -38.431     -30.328     108.354
  O      -40.054     -28.450     109.082
  H      -40.130     -28.203     108.128
  H      -39.895     -29.653     112.708
  H      -40.608     -28.685     111.441
  H      -39.004     -28.314     112.025

 6  7  8  9  10  11  12  13  14  15  26  29  33  34 0
 6-311+G(2d,p)
 ****
 36  38  39  40  41 0
 6-311+G(2d,p)
 ****
 1  2  3  4  5  16  17  18  19  20  21  22  23  24  25 0
 3-21G
 ****
 27  28  30  31  32  35  37  42  43  44  45  46  47 0
 3-21G
 ****
 48  49 0
 3-21G
 ****


