%nproc=1
%NoSave
%Mem=1900MB
#P OB98/GEN NMR

erre ene a

0 1
  C      -97.089     203.801     266.980
  O      -97.712     204.111     265.732
  P      -97.080     203.406     264.433
  C      -96.562     205.546     263.070
  O      -96.035     204.433     263.774
  C      -95.481     206.598     262.794
  O      -95.918     207.542     261.772
  C      -95.094     207.422     264.025
  O      -93.693     207.713     263.911
  C      -95.882     208.704     263.835
  O      -95.353     209.768     264.621
  C      -95.748     208.868     262.321
  N      -96.262     213.117     259.645
  C      -95.126     212.507     260.137
  N      -93.947     213.088     259.829
  N      -95.142     211.422     260.866
  C      -96.391     210.931     261.061
  C      -97.589     211.431     260.614
  C      -97.558     212.651     259.835
  O      -98.534     213.228     259.372
  N      -98.641     210.630     260.992
  C      -98.072     209.688     261.723
  N      -96.709     209.792     261.749
  O      -98.302     203.385     263.401
  O      -96.550     202.035     264.695
  H      -94.478     210.004     264.247
  H      -98.712     202.501     263.384
  H      -96.193     213.962     259.102
  H      -98.596     208.896     262.231
  H      -94.757     209.237     262.029
  H      -96.929     208.549     264.121
  H      -93.859     213.897     259.229
  H      -95.301     206.935     264.982
  H      -93.096     212.640     260.143
  H      -94.596     206.081     262.401
  H      -97.366     206.006     263.648
  H      -97.020     205.194     262.138
  P      -92.655     206.586     264.369
  C      -92.201     207.528     266.737
  O      -92.743     206.475     265.965
  O      -91.232     207.283     264.122
  O      -92.756     205.299     263.619
  H      -90.601     206.622     263.780
  H      -92.719     207.561     267.699
  H      -92.314     208.497     266.243
  H      -91.140     207.337     266.917
  H      -97.590     204.323     267.768
  H      -96.062     204.100     266.950
  H      -97.148     202.747     267.156

 3  4  5  6  7  8  9  10  11  12  23  26  30  31 0
 6-311+G(2d,p)
 ****
 33  35  36  37  38 0
 6-311+G(2d,p)
 ****
 1  2  13  14  15  16  17  18  19  20  21  22  24  25 0
 3-21G
 ****
 27  28  29  32  34  39  40  41  42  43  44  45  46  47  48  49 0
 3-21G
 ****


