%nproc=1
%NoSave
%Mem=1900MB
#P OB98/GEN NMR

erre ene a

0 1
  C      -58.865    -895.790     418.939
  O      -58.065    -896.100     417.806
  P      -58.734    -897.050     416.675
  C      -58.026    -895.860     414.487
  O      -57.831    -896.960     415.363
  C      -56.671    -895.400     413.898
  O      -55.848    -894.760     414.908
  C      -55.829    -896.530     413.359
  O      -56.234    -896.950     412.069
  C      -54.448    -895.870     413.288
  O      -54.347    -895.100     412.061
  C      -54.460    -894.940     414.510
  N      -50.789    -894.060     417.894
  C      -51.246    -893.270     416.851
  N      -50.670    -892.050     416.720
  N      -52.201    -893.640     416.027
  C      -52.711    -894.850     416.302
  C      -52.330    -895.740     417.296
  C      -51.252    -895.350     418.176
  O      -50.791    -896.020     419.104
  N      -53.085    -896.890     417.277
  C      -53.935    -896.700     416.278
  N      -53.742    -895.480     415.654
  O      -60.064    -896.250     416.281
  O      -59.040    -898.440     417.168
  H      -54.729    -895.650     411.353
  H      -60.749    -896.870     415.957
  H      -50.059    -893.730     418.498
  H      -54.715    -897.380     415.984
  H      -54.069    -893.950     414.286
  H      -53.620    -896.600     413.267
  H      -49.979    -891.680     417.379
  H      -55.792    -897.380     414.052
  H      -51.037    -891.440     415.992
  H      -56.888    -894.660     413.110
  H      -58.456    -895.010     415.044
  H      -58.720    -896.130     413.703
  P      -56.226    -898.530     411.745
  C      -57.955    -898.190     409.831
  O      -56.682    -898.660     410.197
  O      -57.497    -899.070     412.574
  O      -54.966    -899.200     412.132
  H      -57.333    -900.000     412.835
  H      -58.170    -897.230     410.308
  H      -58.719    -898.920     410.142
  H      -57.979    -898.080     408.748
  H      -58.312    -895.161     419.605
  H      -59.134    -896.694     419.444
  H      -59.751    -895.281     418.621

 3  4  5  6  7  8  9  10  11  12  23  26  30  31  33  0
 6-311+G(2d,p)
 ****
 35  36  37  38 0
 6-311+G(2d,p)
 ****
 1  2  13  14  15  16  17  18  19  20  21  22  24  25  27  28  29 0
 3-21G
 ****
 32  34  39  40  41  42  43  44  45  46  47  48  49 0
 3-21G
 ****


