%nproc=1
%NoSave
%Mem=1900MB
#P OB98/GEN NMR

erre ene a

0 1
  C       75.503     387.297     665.914
  O       74.384     387.796     666.616
  H       75.831     388.054     665.195
  H       75.227     386.391     665.366
  H       76.327     387.082     666.599
  P       73.871     386.925     667.863
  C       74.857     388.698     669.485
  O       73.719     387.942     669.095
  C       74.432     389.880     670.352
  O       73.798     390.895     669.542
  C       73.436     389.529     671.450
  O       74.082     388.995     672.598
  C       72.843     390.900     671.737
  O       73.764     391.669     672.538
  C       72.732     391.497     670.332
  N       68.389     393.592     668.762
  C       69.466     394.163     669.414
  N       69.369     395.479     669.700
  N       70.542     393.504     669.764
  C       70.499     392.192     669.426
  C       69.490     391.512     668.777
  C       68.314     392.253     668.388
  O       67.344     391.803     667.794
  N       69.809     390.197     668.602
  C       70.999     390.068     669.156
  N       71.459     391.249     669.681
  O       75.159     386.055     668.264
  O       72.691     386.055     667.596
  H       74.004     391.117     673.302
  H       74.862     385.176     668.562
  H       67.585     394.141     668.527
  H       71.567     389.150     669.203
  H       72.895     392.583     670.322
  H       71.907     390.845     672.294
  H       68.550     396.032     669.500
  H       72.645     388.862     671.080
  H       70.160     395.927     670.145
  H       75.339     390.326     670.779
  H       75.365     389.069     668.591
  H       75.539     388.051     670.040
  P       73.432     387.690     673.280
  C       75.749     386.533     673.078
  O       74.664     386.890     673.925
  O       73.029     386.792     672.015
  O       72.272     387.954     674.176
  H       72.321     386.166     672.267
  H       76.488     386.008     673.647
  H       76.182     387.418     672.661
  H       75.393     385.904     672.289

 6  7  8  9  10  11  12  13  14  15  26  29  33  34 0
 6-311+G(2d,p)
 ****
 36  38  39  40  41 0
 6-311+G(2d,p)
 ****
 1  2  3  4  5  16  17  18  19  20  21  22  23  24  25 0
 3-21G
 ****
 27  28  30  31  32  35  37  42  43  44  45  46  47 0
 3-21G
 ****
 48  49 0
 3-21G
 ****


