%nproc=1
%NoSave
%Mem=1900MB
#P OB98/GEN NMR

erre ene a

0 1
  C     -229.873    -533.656       3.631
  O     -230.215    -532.353       3.203
  H     -228.782    -533.733       3.670
  H     -230.249    -534.392       2.919
  H     -230.277    -533.855       4.627
  P     -231.757    -531.918       3.187
  C     -232.241    -532.901       0.847
  O     -232.538    -532.955       2.237
  C     -233.294    -533.664       0.035
  O     -233.202    -535.078       0.372
  C     -234.733    -533.206       0.309
  O     -235.475    -533.254      -0.910
  C     -235.256    -534.260       1.274
  O     -236.678    -534.389       1.212
  C     -234.510    -535.510       0.818
  N     -235.340    -540.329       2.117
  C     -235.507    -539.684       0.901
  N     -235.985    -540.440      -0.122
  N     -235.235    -538.421       0.703
  C     -234.744    -537.798       1.801
  C     -234.526    -538.321       3.061
  C     -234.863    -539.716       3.269
  O     -234.745    -540.336       4.329
  N     -234.039    -537.370       3.918
  C     -233.953    -536.275       3.184
  N     -234.381    -536.482       1.893
  O     -232.007    -530.479       2.864
  O     -232.289    -532.293       4.646
  H     -236.896    -534.790       0.346
  H     -232.403    -531.495       5.196
  H     -235.574    -541.300       2.210
  H     -233.595    -535.315       3.529
  H     -235.009    -536.019      -0.014
  H     -234.984    -533.987       2.300
  H     -236.193    -541.422      -0.041
  H     -234.774    -532.203       0.727
  H     -236.085    -539.997      -1.030
  H     -233.045    -533.575      -1.028
  H     -231.249    -533.357       0.688
  H     -232.201    -531.853       0.526
  P     -235.597    -531.926      -1.800
  C     -238.062    -531.345      -1.326
  O     -236.705    -530.958      -1.144
  O     -235.739    -532.144      -3.265
  O     -234.227    -531.152      -1.476
  H     -233.924    -530.678      -2.276
  H     -238.703    -530.632      -0.851
  H     -238.219    -532.311      -0.892
  H     -238.285    -531.383      -2.372

 6  7  8  9  10  11  12  13  14  15  26  29  33  34 0
 6-311+G(2d,p)
 ****
 36  38  39  40  41 0
 6-311+G(2d,p)
 ****
 1  2  3  4  5  16  17  18  19  20  21  22  23  24  25 0
 3-21G
 ****
 27  28  30  31  32  35  37  42  43  44  45  46  47 0
 3-21G
 ****
 48  49 0
 3-21G
 ****


