%nproc=1
%NoSave
%Mem=1900MB
#P OB98/GEN NMR

erre ene a

0 1
  C      -10.721     791.594    -167.152
  O      -11.816     792.428    -166.823
  P      -11.732     793.431    -165.572
  C      -12.863     792.802    -163.281
  O      -11.843     792.567    -164.230
  C      -14.061     791.901    -163.608
  O      -13.620     790.560    -163.895
  C      -15.044     791.827    -162.438
  O      -16.084     792.786    -162.593
  C      -15.530     790.397    -162.504
  O      -16.574     790.253    -163.495
  C      -14.247     789.649    -162.961
  N      -13.252     789.287    -161.929
  C      -13.539     788.284    -161.018
  O      -14.585     787.629    -161.021
  N      -12.574     788.053    -160.072
  C      -11.371     788.690    -159.974
  O      -10.640     788.658    -158.992
  C      -11.023     789.548    -161.116
  C      -11.963     789.826    -162.022
  O      -13.145     794.192    -165.633
  O      -10.586     794.386    -165.579
  H      -17.368     790.677    -163.125
  H      -13.046     795.066    -166.055
  H      -12.835     787.425    -159.303
  H      -10.029     789.969    -161.153
  H      -11.739     790.470    -162.857
  H      -14.507     788.729    -163.505
  H      -15.971     790.080    -161.551
  H      -14.515     791.979    -161.489
  H      -14.571     792.299    -164.498
  H      -13.158     793.854    -163.293
  H      -12.496     792.587    -162.270
  P      -16.655     793.559    -161.304
  C      -18.978     792.537    -160.917
  O      -17.603     792.497    -160.565
  O      -17.272     794.897    -161.571
  O      -15.371     793.669    -160.349
  H      -14.958     794.546    -160.445
  H      -19.475     791.663    -160.494
  H      -19.107     792.530    -162.000
  H      -19.427     793.452    -160.501
  H      -10.968     791.003    -168.009
  H      -10.502     790.950    -166.326
  H       -9.865     792.198    -167.369

 3  4  5  6  7  8  9  10  11  12  13  23  28  29  30  31  32 0
 6-311+G(2d,p)
 ****
 33  34 0
 6-311+G(2d,p)
 ****
 1  2  14  15  16  17  18  19  20  21  22  24  25  26  27 0
 3-21G
 ****
 35  36  37  38  39  40  41  42  43  44  45 0
 3-21G
 ****


