%nproc=1
%NoSave
%Mem=1900MB
#P OB98/GEN NMR

erre ene a

0 1
  C      134.671    -267.747      57.767
  O      134.067    -268.587      58.758
  P      134.508    -270.110      58.994
  C      132.065    -270.816      59.446
  O      133.413    -270.844      59.906
  C      131.178    -271.779      60.237
  O      131.398    -273.144      59.816
  C      131.417    -271.777      61.743
  O      130.840    -270.631      62.351
  C      130.774    -273.104      62.145
  O      129.351    -272.969      62.292
  C      131.118    -274.003      60.941
  N      132.233    -274.902      61.217
  C      131.909    -276.154      61.738
  O      130.736    -276.437      62.003
  N      132.924    -277.055      61.977
  C      134.154    -276.702      61.780
  N      135.116    -277.630      62.026
  C      134.547    -275.354      61.312
  C      133.546    -274.519      61.053
  O      135.912    -270.269      59.480
  O      134.330    -270.820      57.566
  H      129.011    -272.645      61.437
  H      134.992    -271.533      57.481
  H      135.590    -275.093      61.189
  H      133.742    -273.513      60.698
  H      130.248    -274.604      60.653
  H      131.158    -273.483      63.098
  H      132.494    -271.820      61.948
  H      130.128    -271.528      60.019
  H      134.815    -278.544      62.338
  H      132.059    -271.112      58.386
  H      136.105    -277.459      61.902
  H      131.685    -269.793      59.529
  P      131.724    -269.734      63.342
  C      130.577    -268.857      65.465
  O      130.734    -268.700      64.064
  O      132.946    -269.121      62.743
  O      132.113    -270.740      64.526
  H      132.985    -270.490      64.883
  H      130.240    -267.904      65.886
  H      131.519    -269.142      65.936
  H      129.818    -269.623      65.662
  H      134.216    -266.779      57.795
  H      134.530    -268.180      56.799
  H      135.718    -267.655      57.968

 3  4  5  6  7  8  9  10  11  12  13  23  27  28  29  30  32 0
 6-311+G(2d,p)
 ****
 34  35 0
 6-311+G(2d,p)
 ****
 1  2  14  15  16  17  18  19  20  21  22  24  25  26 0
 3-21G
 ****
 31  33  36  37  38  39  40  41  42  43  44  45  46 0
 3-21G
 ****


