%nproc=1
%NoSave
%Mem=1900MB
#P OB98/GEN NMR

erre ene a

0 1
  C     1349.275     903.646    -515.240
  O     1349.104     904.273    -513.982
  P     1349.816     905.664    -513.636
  C     1352.083     906.232    -512.542
  O     1351.335     905.310    -513.357
  C     1353.332     906.740    -513.256
  O     1354.277     905.607    -513.368
  C     1353.125     907.310    -514.663
  O     1354.102     908.344    -514.801
  C     1353.441     906.127    -515.524
  O     1353.757     906.517    -516.885
  C     1354.614     905.486    -514.792
  N     1354.824     904.094    -515.171
  C     1356.150     903.725    -515.427
  O     1357.062     904.551    -515.377
  N     1356.418     902.399    -515.773
  C     1355.431     901.582    -515.923
  N     1355.746     900.292    -516.227
  C     1354.034     901.959    -515.785
  C     1353.776     903.226    -515.394
  O     1349.133     906.475    -512.587
  O     1349.894     906.408    -515.058
  H     1354.526     907.111    -516.870
  H     1349.004     906.787    -515.297
  H     1353.223     901.241    -515.969
  H     1352.778     903.617    -515.258
  H     1355.557     906.045    -514.937
  H     1352.588     905.450    -515.586
  H     1352.117     907.712    -514.786
  H     1353.830     907.470    -512.594
  H     1356.746     900.073    -516.295
  H     1352.347     905.735    -511.601
  H     1355.065     899.541    -516.311
  H     1351.409     907.086    -512.277
  P     1353.731     909.734    -515.527
  C     1354.033     910.220    -518.007
  O     1353.412     909.372    -517.060
  O     1354.729     910.834    -515.321
  O     1352.272     910.135    -514.925
  H     1352.098     911.071    -515.128
  H     1353.968     909.710    -519.024
  H     1355.083     910.382    -517.793
  H     1353.529     911.192    -518.084
  H     1348.717     902.733    -515.263
  H     1350.312     903.433    -515.394
  H     1348.925     904.297    -516.014

 3  4  5  6  7  8  9  10  11  12  13  23  27  28  29  30  32 0
 6-311+G(2d,p)
 ****
 34  35 0
 6-311+G(2d,p)
 ****
 1  2  14  15  16  17  18  19  20  21  22  24  25  26 0
 3-21G
 ****
 31  33  36  37  38  39  40  41  42  43  44  45  46 0
 3-21G
 ****


