%nproc=1
%NoSave
%Mem=1900MB
#P OB98/GEN NMR

erre ene a

0 1
  C      421.527    -129.574    -160.289
  O      421.931    -128.552    -159.402
  H      420.787    -129.161    -160.982
  H      421.067    -130.400    -159.739
  H      422.379    -129.939    -160.865
  P      422.966    -128.912    -158.232
  C      421.303    -129.001    -156.258
  O      422.148    -129.746    -157.130
  C      420.503    -129.952    -155.362
  O      419.740    -130.836    -156.226
  C      421.403    -130.812    -154.464
  O      421.051    -130.743    -153.087
  C      421.362    -132.181    -155.135
  O      421.601    -133.271    -154.266
  C      419.987    -132.196    -155.810
  N      419.893    -133.103    -156.952
  C      419.265    -134.329    -156.744
  O      418.761    -134.694    -155.682
  N      419.217    -135.157    -157.833
  C      419.730    -134.901    -159.069
  O      419.646    -135.682    -160.008
  C      420.402    -133.598    -159.221
  C      420.453    -132.775    -158.170
  O      423.752    -127.765    -157.692
  O      423.921    -130.021    -158.884
  H      420.966    -133.211    -153.526
  H      424.768    -129.613    -159.139
  H      418.751    -136.040    -157.695
  H      420.829    -133.363    -160.185
  H      420.939    -131.807    -158.246
  H      419.210    -132.477    -155.096
  H      422.138    -132.207    -155.908
  H      422.435    -130.445    -154.478
  H      419.785    -129.366    -154.776
  H      420.626    -128.403    -156.880
  H      421.910    -128.330    -155.642
  P      421.773    -129.813    -152.008
  C      423.560    -131.435    -150.975
  O      423.273    -130.331    -151.829
  O      421.000    -129.541    -150.764
  O      421.946    -128.408    -152.791
  H      421.880    -127.703    -152.115
  H      424.612    -131.631    -150.986
  H      423.033    -132.300    -151.320
  H      423.251    -131.204    -149.977

 6  7  8  9  10  11  12  13  14  15  16  26  31  32  33  34  35 0
 6-311+G(2d,p)
 ****
 36  37 0
 6-311+G(2d,p)
 ****
 1  2  3  4  5  17  18  19  20  21  22  23  24  25 0
 3-21G
 ****
 27  28  29  30  38  39  40  41  42  43  44  45 0
 3-21G
 ****


