%nproc=1
%NoSave
%Mem=1900MB
#P OB98/GEN NMR

erre ene a

0 1
  C     -183.331     130.100      80.438
  O     -182.661     130.546      79.276
  H     -184.405     130.247      80.303
  H     -183.003     130.675      81.308
  H     -183.137     129.036      80.599
  P     -181.059     130.472      79.288
  C     -180.720     133.040      79.500
  O     -180.531     131.872      78.711
  C     -179.938     134.200      78.892
  O     -180.112     135.386      79.702
  C     -178.435     133.970      78.826
  O     -178.066     133.132      77.745
  C     -177.934     135.396      78.666
  O     -177.976     135.819      77.293
  C     -178.935     136.200      79.526
  N     -178.358     136.612      80.801
  C     -177.991     137.951      80.895
  O     -178.135     138.755      79.972
  N     -177.416     138.334      82.076
  C     -177.143     137.517      83.132
  O     -176.555     137.907      84.136
  C     -177.564     136.112      82.985
  C     -178.134     135.728      81.839
  O     -180.735     129.431      78.117
  O     -180.454     130.063      80.591
  H     -180.504     128.563      78.498
  H     -177.877     136.791      77.304
  H     -177.134     139.298      82.157
  H     -177.367     135.439      83.810
  H     -178.436     134.695      81.699
  H     -179.254     137.105      78.993
  H     -176.899     135.497      78.996
  H     -178.068     133.572      79.781
  H     -180.343     134.404      77.891
  H     -180.354     132.856      80.517
  H     -181.789     133.270      79.548
  P     -176.868     132.088      77.959
  C     -175.246     133.239      76.241
  O     -176.002     132.100      76.609
  O     -177.657     130.698      77.906
  O     -176.085     132.320      79.206
  H     -178.397     130.706      77.273
  H     -174.743     133.050      75.316
  H     -174.525     133.450      77.003
  H     -175.899     134.079      76.126

 6  7  8  9  10  11  12  13  14  15  16  27  31  32  33  34  35 0
 6-311+G(2d,p)
 ****
 36  37 0
 6-311+G(2d,p)
 ****
 1  2  3  4  5  17  18  19  20  21  22  23  24  25 0
 3-21G
 ****
 26  28  29  30  38  39  40  41  42  43  44  45 0
 3-21G
 ****


