%nproc=1
%NoSave
%Mem=1900MB
#P OB98/GEN NMR

erre ene a

0 1
  C     -198.989     248.353      78.608
  O     -199.467     249.669      78.763
  H     -198.244     248.160      79.386
  H     -198.505     248.233      77.636
  H     -199.801     247.631      78.715
  P     -200.547     250.240      77.723
  C     -202.344     250.232      79.555
  O     -201.974     249.738      78.275
  C     -203.456     249.384      80.173
  O     -203.069     247.983      80.147
  C     -203.774     249.748      81.631
  O     -205.189     249.857      81.803
  C     -203.255     248.556      82.418
  O     -203.899     248.396      83.679
  C     -203.476     247.425      81.409
  N     -202.725     246.226      81.755
  C     -203.394     245.287      82.546
  O     -204.554     245.491      82.904
  N     -202.719     244.167      82.956
  C     -201.468     244.021      82.646
  N     -200.849     242.903      83.109
  C     -200.715     245.002      81.837
  C     -201.400     246.069      81.426
  O     -200.271     249.911      76.294
  O     -200.596     251.814      78.006
  H     -204.868     248.498      83.548
  H     -200.947     252.272      77.206
  H     -199.673     244.836      81.610
  H     -200.931     246.843      80.829
  H     -204.540     247.164      81.339
  H     -202.180     248.685      82.603
  H     -203.305     250.676      81.954
  H     -204.348     249.467      79.539
  H     -201.401     242.261      83.665
  H     -202.671     251.273      79.448
  H     -199.876     242.694      82.953
  H     -201.465     250.196      80.207
  P     -205.766     251.340      82.015
  C     -207.478     251.014      80.093
  O     -206.435     251.811      80.635
  O     -204.445     252.236      82.131
  O     -206.630     251.474      83.224
  H     -204.343     252.558      83.047
  H     -207.822     251.451      79.179
  H     -208.287     250.963      80.791
  H     -207.110     250.028      79.901

 6  7  8  9  10  11  12  13  14  15  16  26  30  31  32  33  35 0
 6-311+G(2d,p)
 ****
 37  38 0
 6-311+G(2d,p)
 ****
 1  2  3  4  5  17  18  19  20  21  22  23  24  25 0
 3-21G
 ****
 27  28  29  34  36  39  40  41  42  43  44  45  46 0
 3-21G
 ****


