%nproc=1
%NoSave
%Mem=1900MB
#P OB98/GEN NMR

erre ene a

0 1
  C     -192.593     136.163    -104.915
  O     -193.730     135.331    -105.049
  H     -192.633     136.655    -103.940
  H     -192.593     136.928    -105.696
  H     -191.681     135.566    -104.973
  P     -193.846     134.496    -106.414
  C     -195.007     135.273    -108.594
  O     -194.119     135.609    -107.536
  C     -196.078     136.348    -108.754
  O     -196.938     136.385    -107.601
  C     -195.530     137.763    -108.908
  O     -195.111     138.000    -110.243
  C     -196.759     138.582    -108.546
  O     -197.651     138.647    -109.677
  C     -197.399     137.751    -107.422
  N     -198.656     140.907    -103.575
  C     -199.076     140.842    -104.855
  N     -198.669     140.006    -105.833
  C     -197.722     139.169    -105.380
  C     -197.194     139.116    -104.099
  C     -197.708     140.032    -103.166
  N     -197.284     140.088    -101.857
  N     -196.239     138.126    -104.003
  C     -196.229     137.555    -105.190
  N     -197.083     138.173    -106.070
  O     -194.785     133.339    -106.386
  O     -192.311     134.119    -106.672
  H     -197.846     137.732    -109.949
  H     -191.732     134.863    -106.430
  H     -199.846     141.558    -105.134
  H     -195.639     136.687    -105.459
  H     -198.492     137.740    -107.496
  H     -196.507     139.612    -108.282
  H     -194.737     137.965    -108.181
  H     -196.701     136.075    -109.616
  H     -195.478     134.304    -108.402
  H     -197.576     140.881    -101.306
  H     -196.492     139.522    -101.589
  H     -194.413     135.192    -109.509
  P     -193.729     138.754    -110.542
  C     -192.913     141.192    -110.579
  O     -194.033     140.327    -110.435
  O     -193.044     138.339    -111.798
  O     -192.829     138.471    -109.252
  H     -191.898     138.330    -109.513
  H     -193.234     142.209    -110.490
  H     -192.467     141.041    -111.540
  H     -192.195     140.977    -109.815

 6  7  8  9  10  11  12  13  14  15  25  28  32  33  34  35 0
 6-311+G(2d,p)
 ****
 36  39  40 0
 6-311+G(2d,p)
 ****
 1  2  3  4  5  16  17  18  19  20  21  22  23  24 0
 3-21G
 ****
 26  27  29  30  31  37  38  41  42  43  44  45  46  47 0
 3-21G
 ****
 48 0
 3-21G
 ****


