%nproc=1
%NoSave
%Mem=1900MB
#P OB98/GEN NMR

erre ene a

0 1
  C       -4.247    -284.797    -255.724
  O       -5.339    -284.564    -254.828
  P       -4.982    -284.120    -253.327
  C       -6.154    -286.115    -252.112
  O       -6.143    -284.728    -252.400
  C       -7.508    -286.539    -251.528
  O       -7.665    -285.979    -250.189
  C       -8.721    -286.107    -252.359
  O       -9.683    -287.169    -252.277
  C       -9.223    -284.880    -251.621
  O      -10.588    -284.608    -251.905
  C       -8.930    -285.285    -250.172
  N       -8.902    -284.142    -249.262
  C      -10.052    -283.906    -248.517
  O      -11.087    -284.556    -248.655
  N       -9.988    -282.859    -247.636
  C       -8.937    -282.001    -247.487
  O       -8.934    -281.077    -246.684
  C       -7.795    -282.233    -248.383
  C       -7.831    -283.277    -249.215
  O       -5.293    -282.554    -253.380
  O       -3.587    -284.479    -252.930
  H       -6.061    -282.328    -253.932
  H      -11.126    -285.393    -251.669
  H      -10.799    -282.690    -247.063
  H       -6.966    -281.536    -248.339
  H       -7.016    -283.462    -249.902
  H       -9.685    -285.995    -249.814
  H       -8.627    -284.005    -251.905
  H       -8.472    -285.915    -253.407
  H       -7.501    -287.631    -251.422
  H       -5.368    -286.350    -251.386
  H       -5.922    -286.676    -253.024
  P       -9.549    -288.401    -253.304
  C      -11.401    -287.565    -254.954
  O      -10.959    -288.548    -254.049
  O       -9.555    -289.627    -252.271
  O       -8.330    -288.376    -254.165
  H      -10.261    -289.562    -251.604
  H      -12.251    -287.962    -255.518
  H      -10.613    -287.295    -255.661
  H      -11.728    -286.676    -254.408
  H       -4.627    -285.084    -256.682
  H       -3.628    -285.579    -255.337
  H       -3.670    -283.902    -255.823

 3  4  5  6  7  8  9  10  11  12  13  24  28  29  30  31  32 0
 6-311+G(2d,p)
 ****
 33  34 0
 6-311+G(2d,p)
 ****
 1  2  14  15  16  17  18  19  20  21  22  23  25  26  27 0
 3-21G
 ****
 35  36  37  38  39  40  41  42  43  44  45 0
 3-21G
 ****


