%nproc=1
%NoSave
%Mem=1900MB
#P OB98/GEN NMR

erre ene a

0 1
  C       38.599     -71.171      50.525
  O       38.695     -72.555      50.804
  H       38.903     -71.001      49.489
  H       39.265     -70.608      51.186
  H       37.568     -70.832      50.653
  P       38.265     -73.019      52.279
  C       39.498     -73.056      54.556
  O       39.540     -72.672      53.188
  C       40.800     -72.681      55.259
  O       40.906     -71.252      55.399
  C       40.941     -73.247      56.666
  O       41.370     -74.597      56.627
  C       42.014     -72.331      57.235
  O       43.312     -72.755      56.773
  C       41.657     -70.969      56.611
  N       41.368     -66.292      58.709
  C       42.363     -66.918      58.048
  N       42.386     -68.176      57.554
  C       41.228     -68.806      57.804
  C       40.122     -68.294      58.468
  C       40.217     -66.969      58.924
  N       39.192     -66.330      59.591
  N       39.114     -69.235      58.537
  C       39.583     -70.275      57.877
  N       40.871     -70.079      57.448
  O       37.727     -74.403      52.392
  O       37.237     -71.855      52.677
  H       43.281     -72.782      55.798
  H       37.550     -70.995      52.347
  H       43.265     -66.332      57.889
  H       39.029     -71.183      57.672
  H       42.552     -70.408      56.318
  H       42.042     -72.349      58.326
  H       40.019     -73.120      57.243
  H       41.631     -73.006      54.620
  H       39.324     -74.134      54.645
  H       39.404     -65.447      60.031
  H       38.387     -66.877      59.858
  H       38.655     -72.532      55.018
  P       40.459     -75.763      57.245
  C       39.715     -76.471      59.603
  O       40.598     -75.656      58.841
  O       40.712     -77.122      56.691
  O       38.959     -75.282      56.979
  H       38.393     -76.044      56.746
  H       39.898     -76.317      60.646
  H       39.880     -77.500      59.360
  H       38.703     -76.209      59.376

 6  7  8  9  10  11  12  13  14  15  25  28  32  33  34  35 0
 6-311+G(2d,p)
 ****
 36  39  40 0
 6-311+G(2d,p)
 ****
 1  2  3  4  5  16  17  18  19  20  21  22  23  24 0
 3-21G
 ****
 26  27  29  30  31  37  38  41  42  43  44  45  46  47 0
 3-21G
 ****
 48 0
 3-21G
 ****


