%nproc=1
%NoSave
%Mem=1900MB
#P OB98/GEN NMR

erre ene a

0 1
  C     -909.060    1022.891     282.404
  O     -908.788    1021.611     282.943
  H     -908.160    1023.501     282.486
  H     -909.870    1023.366     282.966
  H     -909.337    1022.801     281.347
  P     -909.994    1020.548     282.901
  C     -908.518    1018.410     283.198
  O     -909.493    1019.280     283.749
  C     -907.537    1017.937     284.277
  O     -906.685    1019.051     284.648
  C     -908.221    1017.451     285.571
  O     -907.375    1016.461     286.174
  C     -908.218    1018.708     286.400
  O     -908.510    1018.412     287.757
  C     -906.828    1019.237     286.082
  N     -905.248    1022.439     289.729
  C     -905.259    1021.099     289.666
  N     -905.676    1020.312     288.653
  C     -906.118    1021.056     287.619
  C     -906.167    1022.434     287.541
  C     -905.703    1023.150     288.658
  N     -905.706    1024.525     288.753
  N     -906.693    1022.844     286.324
  C     -906.947    1021.716     285.679
  N     -906.624    1020.625     286.423
  O     -909.971    1020.019     281.391
  O     -911.331    1021.081     283.291
  H     -907.770    1017.955     288.195
  H     -910.609    1020.521     280.855
  H     -904.863    1020.579     290.537
  H     -907.365    1021.649     284.680
  H     -906.047    1018.641     286.574
  H     -908.997    1019.409     286.064
  H     -909.228    1017.020     285.388
  H     -906.891    1017.160     283.843
  H     -907.975    1018.955     282.408
  H     -909.018    1017.545     282.743
  H     -905.375    1024.964     289.591
  H     -906.058    1025.062     287.962
  P     -908.016    1015.400     287.219
  C     -906.808    1013.212     286.418
  O     -906.971    1014.210     287.429
  O     -909.139    1014.695     286.325
  O     -908.594    1015.990     288.454
  H     -909.862    1014.381     286.898
  H     -906.071    1012.503     286.733
  H     -906.491    1013.675     285.507
  H     -907.740    1012.711     286.258

 6  7  8  9  10  11  12  13  14  15  25  28  32  33  34  35 0
 6-311+G(2d,p)
 ****
 36  37  40 0
 6-311+G(2d,p)
 ****
 1  2  3  4  5  16  17  18  19  20  21  22  23  24 0
 3-21G
 ****
 26  27  29  30  31  38  39 41  42  43  44  45  46  47  48 0
 3-21G
 ****


