%nproc=1
%NoSave
%Mem=1900MB
#P OB98/GEN NMR

erre ene a

0 1
  C       -8.728     -56.988     146.360
  O       -9.197     -56.452     145.143
  P       -8.511     -56.830     143.747
  C       -8.136     -54.373     143.069
  O       -8.784     -55.599     142.749
  C       -8.337     -53.355     141.941
  O       -7.781     -52.071     142.366
  C       -7.633     -53.765     140.632
  O       -8.478     -53.761     139.481
  C       -6.449     -52.814     140.577
  O       -5.904     -52.648     139.281
  C       -7.022     -51.564     141.252
  N       -5.983     -50.626     141.667
  C       -5.910     -49.416     140.984
  O       -6.663     -49.088     140.070
  N       -4.883     -48.587     141.340
  C       -3.877     -48.886     142.208
  O       -2.932     -48.135     142.406
  C       -3.984     -50.195     142.870
  C       -5.026     -50.984     142.595
  O       -8.885     -58.164     143.193
  O       -6.948     -56.667     144.055
  H       -6.520     -52.094     138.766
  H       -6.678     -55.777     144.340
  H       -4.819     -47.707     140.852
  H       -3.194     -50.465     143.557
  H       -5.132     -51.954     143.069
  H       -7.717     -51.040     140.596
  H       -5.653     -53.234     141.204
  H       -7.268     -54.798     140.689
  H       -9.413     -53.233     141.789
  H       -7.067     -54.562     143.194
  H       -8.516     -53.990     144.022
  P       -8.356     -54.775     138.249
  C       -6.905     -53.345     136.633
  O       -8.167     -53.916     136.913
  O       -9.416     -55.823     138.181
  O       -6.916     -55.443     138.457
  H       -6.917     -56.345     138.084
  H       -7.054     -52.441     136.038
  H       -6.311     -54.053     136.050
  H       -6.370     -53.083     137.549
  H       -9.320     -56.611     147.168
  H       -7.706     -56.705     146.504
  H       -8.802     -58.055     146.332

 3  4  5  6  7  8  9  10  11  12  13  23  28  29  30  31  32 0
 6-311+G(2d,p)
 ****
 33  34 0
 6-311+G(2d,p)
 ****
 1  2  14  15  16  17  18  19  20  21  22  24  25  26  27 0
 3-21G
 ****
 35  36  37  38  39  40  41  42  43  44  45 0
 3-21G
 ****


