%nproc=1
%NoSave
%Mem=1900MB
#P OB98/GEN NMR

erre ene a

0 1
  C     -185.828     663.335     121.618
  O     -184.827     663.399     122.630
  P     -183.481     664.197     122.353
  C     -183.565     666.405     123.716
  O     -183.087     665.040     123.662
  C     -184.302     666.661     125.030
  O     -185.601     666.092     125.055
  C     -183.567     666.079     126.257
  O     -182.421     666.848     126.554
  C     -184.674     666.105     127.296
  O     -184.801     667.413     127.904
  C     -185.942     665.796     126.434
  N     -186.413     664.421     126.579
  C     -187.422     664.220     127.516
  O     -187.834     665.172     128.217
  N     -187.915     662.965     127.699
  C     -187.461     661.975     126.976
  N     -187.982     660.732     127.187
  C     -186.382     662.141     125.978
  C     -185.906     663.356     125.828
  O     -183.459     665.005     121.080
  O     -182.352     663.058     122.324
  H     -184.953     668.023     127.165
  H     -181.644     663.320     121.735
  H     -186.035     661.291     125.394
  H     -185.138     663.575     125.120
  H     -186.755     666.458     126.712
  H     -184.474     665.373     128.089
  H     -183.258     665.036     126.038
  H     -184.394     667.762     125.150
  H     -188.742     660.651     127.886
  H     -184.246     666.593     122.871
  H     -187.740     659.920     126.634
  H     -182.715     667.093     123.576
  P     -181.093     666.048     126.995
  C     -179.565     667.974     126.112
  O     -179.930     667.137     127.214
  O     -180.668     665.323     125.615
  O     -181.259     665.083     128.102
  H     -180.231     664.466     125.849
  H     -179.025     668.859     126.511
  H     -180.448     668.321     125.574
  H     -178.906     667.415     125.426
  H     -186.659     662.762     121.974
  H     -185.422     662.870     120.744
  H     -186.155     664.325     121.376

 3  4  5  6  7  8  9  10  11  12  13  23  27  28  29  30  32 0
 6-311+G(2d,p)
 ****
 34  35 0
 6-311+G(2d,p)
 ****
 1  2  14  15  16  17  18  19  20  21  22  24  25  26 0
 3-21G
 ****
 31  33  36  37  38  39  40  41  42  43  44  45  46 0
 3-21G
 ****


