%nproc=1
%NoSave
%Mem=1900MB
#P OB98/GEN NMR

erre ene a

0 1
  C      208.513    -667.990     186.809
  O      209.477    -667.685     187.827
  P      209.200    -666.367     188.703
  C      210.597    -664.688     187.300
  O      209.310    -665.086     187.740
  C      210.574    -664.123     185.883
  O      209.672    -662.980     185.799
  C      211.944    -663.644     185.383
  O      211.998    -663.883     183.975
  C      211.895    -662.147     185.622
  O      212.850    -661.462     184.807
  C      210.421    -661.855     185.295
  N      209.940    -660.585     185.853
  C      210.077    -659.448     185.056
  O      210.644    -659.517     183.960
  N      209.610    -658.254     185.528
  C      209.101    -658.182     186.714
  N      208.661    -656.964     187.137
  C      208.995    -659.349     187.620
  C      209.428    -660.506     187.123
  O      210.505    -666.261     189.625
  O      207.958    -666.447     189.525
  H      212.848    -660.512     185.065
  H      210.245    -666.137     190.558
  H      208.576    -659.246     188.616
  H      209.385    -661.419     187.713
  H      210.270    -661.811     184.205
  H      212.107    -661.922     186.674
  H      212.782    -664.142     185.871
  H      210.179    -664.890     185.212
  H      208.747    -656.191     186.484
  H      211.274    -665.551     187.321
  H      208.247    -656.796     188.040
  H      211.013    -663.968     188.008
  P      212.664    -665.247     183.456
  C      214.882    -664.131     182.791
  O      214.238    -665.036     183.677
  O      212.539    -665.080     181.861
  O      212.089    -666.547     183.918
  H      212.855    -665.892     181.429
  H      215.915    -663.991     183.127
  H      214.378    -663.168     182.793
  H      214.901    -664.551     181.779
  H      208.805    -668.883     186.298
  H      208.463    -667.180     186.111
  H      207.553    -668.134     187.259

 3  4  5  6  7  8  9  10  11  12  13  21  23  27  28  29  30  32 0
 6-311+G(2d,p)
 ****
 34  35 0
 6-311+G(2d,p)
 ****
 1  2  14  15  16  17  18  19  20  22  24  25  26 0
 3-21G
 ****
 31  33  36  37  38  39  40  41  42  43  44  45  46 0
 3-21G
 ****


