%nproc=1
%NoSave
%Mem=1900MB
#P OB98/GEN NMR

erre ene a

0 1
  C       95.866    -483.134     -13.365
  O       94.769    -482.296     -13.064
  H       96.784    -482.539     -13.338
  H       95.757    -483.562     -14.363
  H       95.954    -483.941     -12.627
  P       93.324    -482.952     -12.853
  C       92.203    -481.506     -11.032
  O       92.336    -481.770     -12.421
  C       91.725    -480.069     -10.796
  O       92.804    -479.153     -11.146
  C       90.487    -479.667     -11.638
  O       89.759    -478.702     -10.875
  C       91.159    -479.034     -12.841
  O       90.260    -478.332     -13.660
  C       92.260    -478.228     -12.125
  N       93.311    -477.701     -12.989
  C       93.256    -476.356     -13.328
  O       92.379    -475.576     -12.951
  N       94.257    -475.903     -14.148
  C       95.292    -476.646     -14.624
  O       96.187    -476.180     -15.331
  C       95.299    -478.073     -14.237
  C       94.331    -478.522     -13.441
  O       93.284    -484.165     -11.983
  O       92.848    -483.288     -14.349
  H       92.967    -484.237     -14.525
  H       89.702    -478.973     -14.150
  H       94.228    -474.927     -14.399
  H       96.103    -478.693     -14.601
  H       94.304    -479.561     -13.128
  H       91.805    -477.405     -11.562
  H       91.602    -479.817     -13.474
  H       89.840    -480.517     -11.871
  H       91.526    -479.936      -9.722
  H       93.190    -481.646     -10.562
  H       91.500    -482.214     -10.589
  P       88.393    -479.024     -10.110
  C       88.896    -477.740      -7.921
  O       88.084    -477.821      -9.088
  O       88.357    -480.379      -9.465
  O       87.241    -478.884     -11.225
  H       86.479    -479.442     -10.970
  H       88.589    -476.902      -7.330
  H       89.920    -477.619      -8.207
  H       88.789    -478.638      -7.349

 6  7  8  9  10  11  12  13  14  15  16  27  31  32  33  34  35 0
 6-311+G(2d,p)
 ****
 36  37 0
 6-311+G(2d,p)
 ****
 1  2  3  4  5  17  18  19  20  21  22  23  24  25 0
 3-21G
 ****
 26  28  29  30  38  39  40  41  42  43  44  45 0
 3-21G
 ****


