%nproc=1
%NoSave
%Mem=1900MB
#P OB98/GEN NMR

erre ene a

0 1
  C      182.462     103.819     288.571
  O      182.629     102.488     288.128
  H      183.434     104.320     288.550
  H      182.083     103.833     289.599
  H      181.774     104.353     287.914
  P      181.322     101.552     288.138
  C      182.034     100.373     290.345
  O      181.056     101.153     289.671
  C      181.492      98.970     290.594
  O      182.512      98.150     291.208
  C      180.307      98.925     291.550
  O      179.092      99.303     290.921
  C      180.325      97.464     291.965
  O      179.646      96.631     291.005
  C      181.837      97.144     291.998
  N      182.358      97.082     293.363
  C      182.592      95.803     293.857
  O      182.377      94.772     293.208
  N      183.042      95.732     295.148
  C      183.242      96.796     295.987
  O      183.580      96.660     297.160
  C      182.992      98.127     295.401
  C      182.556      98.206     294.141
  O      181.847     100.193     287.475
  O      180.140     102.109     287.421
  H      181.545     100.137     286.548
  H      180.035      96.852     290.137
  H      183.209      94.816     295.532
  H      183.149      98.990     296.036
  H      182.345      99.176     293.694
  H      182.036      96.181     291.514
  H      179.828      97.310     292.925
  H      180.506      99.546     292.433
  H      181.225      98.522     289.626
  H      182.277     100.843     291.306
  H      182.943     100.338     289.733
  P      178.263     100.534     291.531
  C      177.434      98.989     293.492
  O      178.035     100.208     293.088
  O      176.825     100.299     290.865
  O      178.877     101.865     291.258
  H      176.602      99.358     290.775
  H      177.370      98.959     294.560
  H      178.027      98.168     293.147
  H      176.451      98.920     293.074

 6  7  8  9  10  11  12  13  14  15  16  27  31  32  33  34  35 0
 6-311+G(2d,p)
 ****
 36  37 0
 6-311+G(2d,p)
 ****
 1  2  3  4  5  17  18  19  20  21  22  23  24  25 0
 3-21G
 ****
 26  28  29  30  38  39  40  41  42  43  44  45 0
 3-21G
 ****


