%nproc=1
%NoSave
%Mem=1900MB
#P OB98/GEN NMR

erre ene a

0 1
  C      -94.993      90.486     -44.941
  O      -95.640      91.764     -44.962
  P      -96.680      92.061     -46.144
  C      -98.924      90.982     -45.394
  O      -98.145      92.163     -45.503
  C     -100.415      91.316     -45.504
  O     -101.191      90.166     -45.908
  C     -101.032      91.797     -44.198
  O     -100.795      93.182     -43.983
  C     -102.509      91.561     -44.468
  O     -103.038      92.635     -45.273
  C     -102.488      90.253     -45.267
  N     -105.921      86.908     -43.650
  C     -106.058      87.979     -44.512
  N     -107.291      88.184     -45.025
  N     -105.076      88.777     -44.842
  C     -103.898      88.440     -44.267
  C     -103.636      87.407     -43.398
  C     -104.734      86.541     -43.029
  O     -104.675      85.587     -42.261
  N     -102.319      87.390     -43.024
  C     -101.778      88.399     -43.679
  N     -102.700      89.079     -44.436
  O      -96.735      90.665     -46.928
  O      -96.284      93.184     -47.043
  H     -102.922      93.454     -44.755
  H      -96.961      90.820     -47.863
  H     -106.712      86.330     -43.427
  H     -100.733      88.675     -43.640
  H     -103.249      90.231     -46.056
  H     -103.102      91.535     -43.549
  H     -108.079      87.580     -44.853
  H     -100.700      91.184     -43.352
  H     -107.404      88.944     -45.685
  H     -100.532      92.098     -46.266
  H      -98.727      90.481     -44.442
  H      -98.613      90.278     -46.170
  P     -100.324      93.642     -42.520
  C      -98.100      92.402     -42.019
  O      -98.726      93.563     -42.525
  O     -100.772      92.412     -41.600
  O     -100.915      94.927     -42.051
  H     -101.001      92.729     -40.707
  H      -97.033      92.453     -42.248
  H      -98.516      91.503     -42.482
  H      -98.224      92.353     -40.934
  H      -94.332      90.434     -44.101
  H      -94.433      90.355     -45.843
  H      -95.730      89.714     -44.863

 3  4  5  6  7  8  9  10  11  12  23  26  30  31 0
 6-311+G(2d,p)
 ****
 33  35  36  37  38 0
 6-311+G(2d,p)
 ****
 1  2  13  14  15  16  17  18  19  20  21  22  24  25 0
 3-21G
 ****
 27  28  29  32  34  39  40  41  42  43  44  45  46  47  48  49 0
 3-21G
 ****


