%nproc=1
%NoSave
%Mem=1900MB
#P OB98/GEN NMR

erre ene a

0 1
  C     -424.881    -642.547    -414.100
  O     -425.964    -642.858    -413.238
  H     -424.051    -643.212    -413.866
  H     -424.563    -641.513    -413.945
  H     -425.176    -642.700    -415.141
  P     -427.286    -641.964    -413.396
  C     -428.556    -643.983    -412.419
  O     -428.313    -642.584    -412.325
  C     -429.083    -644.528    -411.094
  O     -427.961    -644.836    -410.232
  C     -429.976    -643.531    -410.339
  O     -431.044    -644.241    -409.709
  C     -429.051    -642.953    -409.283
  O     -429.762    -642.471    -408.146
  C     -428.134    -644.139    -408.992
  N     -425.716    -642.532    -404.795
  C     -426.954    -643.023    -404.986
  N     -427.519    -643.452    -406.140
  C     -426.636    -643.366    -407.155
  C     -425.339    -642.885    -407.103
  C     -424.874    -642.446    -405.858
  N     -423.625    -641.922    -405.642
  N     -424.765    -642.925    -408.366
  C     -425.694    -643.425    -409.151
  N     -426.853    -643.696    -408.469
  O     -427.816    -641.825    -414.781
  O     -426.838    -640.598    -412.684
  H     -429.111    -642.223    -407.453
  H     -426.362    -640.770    -411.861
  H     -427.595    -643.087    -404.100
  H     -425.586    -643.614    -410.222
  H     -428.557    -644.834    -408.264
  H     -428.487    -642.120    -409.701
  H     -430.379    -642.749    -410.988
  H     -429.610    -645.469    -411.277
  H     -427.636    -644.514    -412.687
  H     -423.375    -641.641    -404.712
  H     -422.978    -641.863    -406.427
  H     -429.293    -644.145    -413.211
  P     -432.443    -644.360    -410.472
  C     -432.636    -646.795    -409.622
  O     -433.298    -645.549    -409.808
  O     -432.374    -644.379    -411.963
  O     -433.228    -643.055    -409.960
  H     -433.751    -642.695    -410.697
  H     -433.311    -647.494    -409.175
  H     -431.790    -646.657    -408.982
  H     -432.309    -647.170    -410.569

 6  7  8  9  10  11  12  13  14  15  25  28  32  33  34  35 0
 6-311+G(2d,p)
 ****
 36  39  40 0
 6-311+G(2d,p)
 ****
 1  2  3  4  5  16  17  18  19  20  21  22  23  24 0
 3-21G
 ****
 26  27  29  30  31  37  38  41  42  43  44  45  46  47 0
 3-21G
 ****
 48 0
 3-21G
 ****


