%nproc=1
%NoSave
%Mem=1900MB
#P OB98/GEN NMR

erre ene a

0 1
  C     -141.757    -493.994    -292.133
  O     -142.921    -493.252    -291.747
  P     -142.653    -491.928    -290.873
  C     -142.816    -492.551    -288.350
  O     -141.973    -492.378    -289.485
  C     -141.980    -492.865    -287.106
  O     -141.421    -494.187    -287.130
  C     -140.796    -491.915    -286.923
  O     -141.247    -490.697    -286.361
  C     -139.905    -492.714    -285.979
  O     -140.316    -492.548    -284.600
  C     -140.153    -494.165    -286.428
  N     -136.365    -497.534    -286.739
  C     -137.108    -497.136    -285.643
  N     -136.832    -497.742    -284.474
  N     -138.055    -496.231    -285.697
  C     -138.229    -495.706    -286.930
  C     -137.567    -496.039    -288.100
  C     -136.524    -497.034    -288.025
  O     -135.853    -497.438    -288.965
  N     -138.066    -495.329    -289.176
  C     -138.937    -494.498    -288.634
  N     -139.121    -494.727    -287.283
  O     -144.123    -491.465    -290.447
  O     -141.926    -490.857    -291.618
  H     -139.841    -493.201    -284.052
  H     -144.365    -490.643    -290.917
  H     -135.640    -498.218    -286.637
  H     -139.472    -493.729    -289.169
  H     -140.236    -494.847    -285.570
  H     -138.869    -492.395    -286.034
  H     -136.117    -498.456    -284.353
  H     -140.290    -491.760    -287.874
  H     -137.377    -497.475    -283.656
  H     -142.657    -492.793    -286.229
  H     -143.523    -493.367    -288.536
  H     -143.410    -491.650    -288.213
  P     -141.675    -489.515    -287.365
  C     -139.372    -488.360    -287.069
  O     -140.324    -488.886    -287.965
  O     -142.238    -488.383    -286.392
  O     -142.697    -489.915    -288.378
  H     -143.060    -488.015    -286.752
  H     -138.378    -488.462    -287.522
  H     -139.382    -488.882    -286.114
  H     -139.576    -487.298    -286.899
  H     -142.052    -494.848    -292.706
  H     -141.233    -494.316    -291.258
  H     -141.117    -493.372    -292.723

 3  4  5  6  7  8  9  10  11  12  23  26  30  31 0
 6-311+G(2d,p)
 ****
 33  35  36  37  38 0
 6-311+G(2d,p)
 ****
 1  2  13  14  15  16  17  18  19  20  21  22  24  25 0
 3-21G
 ****
 27  28  29  32  34  39  40  41  42  43  44  45  46  47  48  49 0
 3-21G
 ****


