%nproc=1
%NoSave
%Mem=1900MB
#P OB98/GEN NMR

erre ene a

0 1
  C     -459.106      -4.098     -19.285
  O     -457.890      -3.365     -19.423
  P     -456.606      -3.907     -18.634
  C     -454.962      -5.052     -20.338
  O     -455.361      -3.877     -19.644
  C     -453.933      -4.721     -21.438
  O     -454.452      -3.634     -22.242
  C     -452.572      -4.250     -20.935
  O     -451.619      -4.394     -21.986
  C     -452.833      -2.774     -20.691
  O     -451.619      -2.032     -20.610
  C     -453.774      -2.406     -21.862
  N     -454.761      -1.364     -21.523
  C     -454.341      -0.263     -20.766
  O     -453.185      -0.112     -20.366
  N     -455.305       0.656     -20.443
  C     -456.615       0.607     -20.824
  O     -457.459       1.412     -20.438
  C     -456.975      -0.491     -21.726
  C     -456.057      -1.414     -22.019
  O     -456.913      -5.461     -18.436
  O     -456.357      -3.207     -17.335
  H     -451.857      -1.146     -20.245
  H     -457.165      -5.644     -17.510
  H     -455.030       1.419     -19.843
  H     -457.999      -0.527     -22.106
  H     -456.318      -2.251     -22.675
  H     -453.203      -2.043     -22.727
  H     -453.358      -2.645     -19.733
  H     -452.214      -4.754     -20.034
  H     -453.819      -5.603     -22.092
  H     -455.842      -5.544     -20.772
  H     -454.528      -5.767     -19.629
  P     -450.436      -5.460     -21.792
  C     -451.489      -7.700     -22.500
  O     -450.672      -6.609     -22.892
  O     -450.209      -5.941     -20.396
  O     -449.157      -4.690     -22.367
  H     -448.336      -5.113     -22.030
  H     -451.989      -8.105     -23.391
  H     -452.242      -7.401     -21.772
  H     -450.858      -8.487     -22.071
  H     -459.874      -3.626     -19.862
  H     -459.395      -4.119     -18.255
  H     -458.961      -5.099     -19.635

 3  4  5  6  7  8  9  10  11  12  13  23  28  29  30  31  32 0
 6-311+G(2d,p)
 ****
 33  34 0
 6-311+G(2d,p)
 ****
 1  2  14  15  16  17  18  19  20  21  22  24  25  26  27 0
 3-21G
 ****
 35  36  37  38  39  40  41  42  43  44  45 0
 3-21G
 ****


