%nproc=1
%NoSave
%Mem=1900MB
#P OB98/GEN NMR

erre ene a

0 1
  C     -254.930    1317.041     -13.980
  O     -256.259    1317.445     -13.690
  H     -254.817    1316.977     -15.065
  H     -254.731    1316.062     -13.542
  H     -254.224    1317.774     -13.589
  P     -256.667    1317.487     -12.134
  C     -257.002    1320.043     -12.571
  O     -257.521    1318.845     -12.012
  C     -258.124    1320.849     -13.219
  O     -258.543    1320.234     -14.460
  C     -259.392    1320.951     -12.375
  O     -259.300    1321.904     -11.327
  C     -260.383    1321.391     -13.448
  O     -260.159    1322.786     -13.761
  C     -259.970    1320.485     -14.624
  N     -260.720    1319.207     -14.643
  C     -262.100    1319.301     -14.820
  O     -262.650    1320.396     -14.937
  N     -262.839    1318.145     -14.813
  C     -262.257    1316.996     -14.674
  N     -263.043    1315.885     -14.675
  C     -260.793    1316.854     -14.498
  C     -260.098    1317.989     -14.502
  O     -255.293    1317.878     -11.396
  O     -257.333    1316.269     -11.591
  H     -260.941    1323.086     -14.271
  H     -255.470    1318.073     -10.450
  H     -260.347    1315.883     -14.376
  H     -259.012    1317.964     -14.389
  H     -260.111    1320.986     -15.583
  H     -261.425    1321.303     -13.143
  H     -259.709    1319.973     -11.996
  H     -257.729    1321.838     -13.467
  H     -264.038    1316.024     -14.727
  H     -256.252    1319.766     -13.324
  H     -262.699    1314.965     -14.425
  H     -256.525    1320.645     -11.798
  P     -260.127    1321.608      -9.986
  C     -258.410    1320.231      -8.566
  O     -259.061    1321.494      -8.791
  O     -260.620    1320.095     -10.188
  O     -261.268    1322.544      -9.729
  H     -261.505    1319.967      -9.789
  H     -257.735    1320.320      -7.741
  H     -257.866    1319.949      -9.443
  H     -259.145    1319.485      -8.347

 6  7  8  9  10  11  12  13  14  15  16  26  30  31  32  33  35 0
 6-311+G(2d,p)
 ****
 37  38 0
 6-311+G(2d,p)
 ****
 1  2  3  4  5  17  18  19  20  21  22  23  24  25 0
 3-21G
 ****
 27  28  29  34  36  39  40  41  42  43  44  45  46 0
 3-21G
 ****


