%nproc=1
%NoSave
%Mem=1900MB
#P OB98/GEN NMR

erre ene a

0 1
  C      193.552     408.528     174.549
  O      193.884     409.878     174.214
  P      194.891     410.077     172.980
  C      196.421     411.955     173.915
  O      195.397     411.601     172.995
  C      196.120     413.311     174.566
  O      195.029     413.237     175.500
  C      197.298     413.882     175.341
  O      198.221     414.481     174.448
  C      196.612     414.888     176.256
  O      196.390     416.144     175.584
  C      195.271     414.202     176.562
  N      194.827     414.856     181.568
  C      195.009     415.792     180.565
  N      195.054     417.088     180.952
  N      195.130     415.485     179.302
  C      195.063     414.151     179.063
  C      194.852     413.134     179.968
  C      194.722     413.487     181.368
  O      194.532     412.702     182.286
  N      194.779     411.913     179.345
  C      195.070     412.185     178.083
  N      195.187     413.537     177.850
  O      193.932     410.002     171.703
  O      195.969     409.047     172.921
  H      195.997     416.776     176.212
  H      194.100     409.174     171.210
  H      194.740     415.150     182.527
  H      195.181     411.446     177.302
  H      194.439     414.916     176.535
  H      197.214     415.110     177.139
  H      194.964     417.396     181.908
  H      197.781     413.091     175.938
  H      195.183     417.787     180.230
  H      195.828     414.001     173.760
  H      197.384     412.003     173.404
  H      196.502     411.169     174.671
  P      199.673     413.814     174.305
  C      201.265     415.668     175.176
  O      200.722     414.993     174.058
  O      199.589     413.067     172.888
  O      200.022     412.856     175.392
  H      199.976     412.176     172.961
  H      202.271     416.017     174.924
  H      201.326     415.016     176.053
  H      200.637     416.531     175.414
  H      192.879     408.522     175.381
  H      194.443     407.995     174.807
  H      193.085     408.057     173.709

 3  4  5  6  7  8  9  10  11  12  23  26  30  31 0
 6-311+G(2d,p)
 ****
 33  35  36  37  38 0
 6-311+G(2d,p)
 ****
 1  2  13  14  15  16  17  18  19  20  21  22  24  25 0
 3-21G
 ****
 27  28  29  32  34  39  40  41  42  43  44  45  46  47  48  49 0
 3-21G
 ****


