%nproc=1
%NoSave
%Mem=1900MB
#P OB98/GEN NMR

erre ene a

0 1
  C      122.632    -510.463     373.374
  O      121.281    -510.562     373.768
  H      123.231    -511.122     374.006
  H      122.976    -509.434     373.518
  H      122.766    -510.756     372.329
  P      120.145    -510.059     372.760
  C      119.568    -507.885     371.498
  O      120.392    -508.494     372.480
  C      119.790    -506.369     371.426
  O      119.414    -505.758     372.682
  C      121.256    -506.010     371.202
  O      121.683    -506.021     369.852
  C      121.322    -504.591     371.784
  O      120.923    -503.616     370.806
  C      120.309    -504.652     372.927
  N      123.838    -502.990     376.228
  C      123.596    -502.571     374.936
  N      124.431    -501.631     374.439
  N      122.626    -503.049     374.194
  C      121.928    -504.044     374.791
  C      122.089    -504.557     376.064
  C      123.130    -503.979     376.892
  O      123.392    -504.324     378.044
  N      121.198    -505.566     376.313
  C      120.546    -505.719     375.178
  N      120.935    -504.797     374.231
  O      118.818    -510.043     373.663
  O      119.952    -510.906     371.535
  H      119.963    -503.708     370.656
  H      118.033    -510.158     373.099
  H      124.580    -502.564     376.763
  H      119.764    -506.453     374.995
  H      119.691    -503.742     372.968
  H      122.332    -504.331     372.095
  H      125.258    -501.320     374.930
  H      121.906    -506.653     371.801
  H      124.456    -501.497     373.427
  H      119.143    -505.940     370.654
  H      118.536    -508.099     371.769
  H      119.747    -508.338     370.514
  P      122.838    -505.024     369.363
  C      122.970    -503.146     367.557
  O      122.152    -503.968     368.368
  O      123.716    -505.950     368.392
  O      123.655    -504.431     370.456
  H      124.483    -506.304     368.882
  H      122.353    -502.507     366.960
  H      123.571    -503.760     366.919
  H      123.605    -502.550     368.179

 6  7  8  9  10  11  12  13  14  15  26  29  33  34 0
 6-311+G(2d,p)
 ****
 36  38  39  40  41 0
 6-311+G(2d,p)
 ****
 1  2  3  4  5  16  17  18  19  20  21  22  23  24  25 0
 3-21G
 ****
 27  28  30  31  32  35  37  42  43  44  45  46  47 0
 3-21G
 ****
 48  49 0
 3-21G
 ****


