%nproc=1
%NoSave
%Mem=1900MB
#P OB98/GEN NMR

erre ene a

0 1
  C      -10.705      -3.677    -178.189
  O       -9.828      -4.154    -179.185
  H      -11.274      -2.839    -178.598
  H      -10.130      -3.325    -177.327
  H      -11.405      -4.453    -177.872
  P       -9.111      -5.569    -178.970
  C      -10.597      -6.705    -180.748
  O      -10.164      -6.701    -179.396
  C      -11.944      -7.424    -180.886
  O      -12.997      -6.545    -180.415
  C      -12.258      -7.752    -182.350
  O      -13.093      -8.900    -182.475
  C      -13.032      -6.526    -182.808
  O      -13.865      -6.781    -183.939
  C      -13.804      -6.164    -181.542
  N      -17.418      -2.601    -182.008
  C      -17.449      -3.930    -182.383
  N      -18.595      -4.366    -182.955
  N      -16.440      -4.748    -182.233
  C      -15.338      -4.158    -181.715
  C      -15.178      -2.848    -181.326
  C      -16.313      -1.960    -181.465
  O      -16.332      -0.769    -181.170
  N      -13.910      -2.616    -180.855
  C      -13.303      -3.780    -180.962
  N      -14.135      -4.754    -181.455
  O       -9.062      -5.727    -177.376
  O       -7.749      -5.703    -179.578
  H      -13.289      -7.090    -184.662
  H       -8.362      -6.354    -177.119
  H      -18.232      -2.022    -182.119
  H      -12.275      -3.973    -180.683
  H      -14.743      -6.727    -181.487
  H      -12.313      -5.759    -183.104
  H      -19.310      -3.726    -183.265
  H      -11.363      -7.896    -182.950
  H      -18.527      -5.224    -183.509
  H      -11.963      -8.313    -180.246
  H       -9.827      -7.217    -181.329
  H      -10.664      -5.684    -181.128
  P      -12.443     -10.347    -182.251
  C      -13.879     -11.185    -180.194
  O      -12.635     -10.798    -180.733
  O      -10.873     -10.081    -182.376
  O      -12.913     -11.390    -183.217
  H      -10.509     -10.548    -183.151
  H      -13.756     -11.443    -179.163
  H      -14.253     -12.032    -180.731
  H      -14.572     -10.374    -180.279

 6  7  8  9  10  11  12  13  14  15  26  29  33  34 0
 6-311+G(2d,p)
 ****
 36  38  39  40  41 0
 6-311+G(2d,p)
 ****
 1  2  3  4  5  16  17  18  19  20  21  22  23  24  25 0
 3-21G
 ****
 27  28  30  31  32  35  37  42  43  44  45  46  47 0
 3-21G
 ****
 48  49 0
 3-21G
 ****


