%nproc=1
%NoSave
%Mem=1900MB
#P OB98/GEN NMR

erre ene a

0 1
  C       95.094       8.840     -54.779
  O       94.979       7.442     -54.609
  H       95.734       9.034     -55.646
  H       95.555       9.292     -53.898
  H       94.115       9.292     -54.960
  P       93.959       6.881     -53.507
  C       93.636       7.224     -50.973
  O       94.531       7.318     -52.075
  C       94.285       7.814     -49.723
  O       95.450       7.039     -49.359
  C       94.789       9.240     -49.907
  O       93.724      10.173     -49.898
  C       95.757       9.352     -48.742
  O       95.068       9.656     -47.523
  C       96.364       7.933     -48.687
  N       97.695       7.882     -49.293
  C       98.754       8.275     -48.481
  O       98.619       8.642     -47.315
  N       99.986       8.296     -49.080
  C      100.228       8.102     -50.411
  O      101.299       8.372     -50.947
  C       99.084       7.629     -51.204
  C       97.885       7.554     -50.621
  O       93.599       5.438     -53.635
  O       92.670       7.819     -53.676
  H       91.985       7.336     -54.175
  H       94.455       8.907     -47.368
  H      100.755       8.621     -48.509
  H       99.251       7.395     -52.249
  H       97.017       7.241     -51.195
  H       96.439       7.589     -47.648
  H       96.496      10.138     -48.910
  H       95.351       9.318     -50.845
  H       93.565       7.756     -48.897
  H       93.402       6.167     -50.799
  H       92.711       7.758     -51.218
  P       93.831      11.529     -50.742
  C       95.236      13.683     -50.738
  O       94.987      12.435     -50.097
  O       92.537      12.237     -50.976
  O       94.483      11.070     -52.133
  H       93.945      11.426     -52.867
  H       96.021      14.197     -50.225
  H       94.347      14.278     -50.717
  H       95.526      13.511     -51.753

 6  7  8  9  10  11  12  13  14  15  16  27  31  32  33  34  35 0
 6-311+G(2d,p)
 ****
 36  37 0
 6-311+G(2d,p)
 ****
 1  2  3  4  5  17  18  19  20  21  22  23  24  25 0
 3-21G
 ****
 26  28  29  30  38  39  40  41  42  43  44  45 0
 3-21G
 ****


