%nproc=1
%NoSave
%Mem=1900MB
#P OB98/GEN NMR

erre ene a

0 1
  C      396.712    1110.003     573.089
  O      396.801    1111.035     572.132
  H      396.074    1109.212     572.692
  H      396.263    1110.391     574.009
  H      397.699    1109.581     573.309
  P      398.000    1112.087     572.239
  C      396.177    1113.856     572.704
  O      397.399    1113.560     572.034
  C      395.690    1115.274     572.407
  O      396.708    1116.224     572.776
  C      395.408    1115.491     570.914
  O      394.099    1115.135     570.504
  C      395.627    1116.993     570.768
  O      394.427    1117.730     571.050
  C      396.699    1117.300     571.827
  N      399.816    1120.198     568.979
  C      398.444    1120.308     569.170
  N      397.842    1121.299     568.473
  N      397.756    1119.519     569.943
  C      398.479    1118.517     570.486
  C      399.841    1118.293     570.367
  C      400.606    1119.220     569.570
  O      401.825    1119.168     569.386
  N      400.216    1117.157     571.029
  C      399.085    1116.645     571.479
  N      398.016    1117.489     571.251
  O      398.818    1111.858     570.875
  O      398.904    1111.921     573.426
  H      393.727    1117.404     570.463
  H      399.768    1112.038     571.026
  H      400.302    1120.851     568.399
  H      398.987    1115.710     572.018
  H      396.457    1118.215     572.386
  H      395.922    1117.250     569.754
  H      398.309    1121.884     567.791
  H      396.150    1114.975     570.298
  H      396.811    1121.303     568.427
  H      394.810    1115.493     573.026
  H      396.374    1113.746     573.770
  H      395.405    1113.127     572.431
  P      393.859    1114.023     569.379
  C      392.311    1115.215     567.612
  O      392.456    1114.301     568.684
  O      393.608    1112.695     570.230
  O      394.974    1113.855     568.402
  H      394.402    1112.156     570.285
  H      391.287    1115.243     567.303
  H      392.923    1114.903     566.792
  H      392.613    1116.190     567.931

 6  7  8  9  10  11  12  13  14  15  26  29  33  34 0
 6-311+G(2d,p)
 ****
 36  38  39  40  41 0
 6-311+G(2d,p)
 ****
 1  2  3  4  5  16  17  18  19  20  21  22  23  24  25 0
 3-21G
 ****
 27  28  30  31  32  35  37  42  43  44  45  46  47 0
 3-21G
 ****
 48  49 0
 3-21G
 ****


