%nproc=1
%NoSave
%Mem=1900MB
#P OB98/GEN NMR

erre ene a

0 1
  C     -166.837    -318.684     347.287
  O     -167.576    -317.570     346.791
  P     -166.970    -316.419     345.857
  C     -166.177    -314.674     347.673
  O     -165.832    -315.648     346.685
  C     -165.069    -313.617     347.805
  O     -165.488    -312.614     348.780
  C     -163.732    -314.213     348.303
  O     -162.585    -313.693     347.636
  C     -163.815    -313.982     349.809
  O     -162.544    -314.044     350.456
  C     -164.557    -312.652     349.893
  N     -164.308    -311.170     354.776
  C     -163.292    -311.324     353.860
  N     -162.047    -311.083     354.298
  N     -163.485    -311.714     352.632
  C     -164.783    -312.016     352.344
  C     -165.863    -311.890     353.168
  C     -165.663    -311.418     354.520
  O     -166.520    -311.226     355.372
  N     -167.033    -312.280     352.528
  C     -166.629    -312.630     351.321
  N     -165.262    -312.473     351.162
  O     -167.963    -315.580     345.134
  O     -166.122    -317.220     344.745
  H     -162.707    -314.184     351.413
  H     -166.166    -316.693     343.921
  H     -164.113    -310.836     355.711
  H     -167.278    -312.976     350.530
  H     -163.883    -311.803     349.802
  H     -164.429    -314.800     350.238
  H     -161.798    -310.900     355.255
  H     -163.686    -315.289     348.101
  H     -161.283    -311.414     353.690
  H     -164.935    -313.118     346.831
  H     -166.267    -315.238     348.617
  H     -167.139    -314.218     347.447
  P     -161.559    -314.461     346.663
  C     -159.955    -315.371     348.461
  O     -160.927    -315.708     347.490
  O     -160.313    -313.471     346.511
  O     -162.126    -314.825     345.319
  H     -160.230    -313.225     345.560
  H     -159.439    -316.300     348.745
  H     -160.449    -314.962     349.357
  H     -159.245    -314.648     348.080
  H     -167.477    -319.300     347.884
  H     -166.021    -318.333     347.884
  H     -166.458    -319.255     346.465

 3  4  5  6  7  8  9  10  11  12  23  26  30  31 0
 6-311+G(2d,p)
 ****
 33  35  36  37  38 0
 6-311+G(2d,p)
 ****
 1  2  13  14  15  16  17  18  19  20  21  22  24  25 0
 3-21G
 ****
 27  28  29  32  34  39  40  41  42  43  44  45  46  47  48  49 0
 3-21G
 ****


