%nproc=1
%NoSave
%Mem=1900MB
#P OB98/GEN NMR

erre ene a

0 1
  C      261.768     -78.820       3.200
  O      260.581     -78.680       3.954
  H      261.754     -79.792       2.703
  H      262.647     -78.772       3.851
  H      261.829     -78.037       2.438
  P      260.391     -77.364       4.848
  C      261.517     -76.436       6.987
  O      261.602     -77.352       5.899
  C      262.863     -76.337       7.711
  O      263.861     -75.770       6.838
  C      262.838     -75.441       8.948
  O      262.193     -76.098      10.026
  C      264.324     -75.185       9.135
  O      264.968     -76.311       9.750
  C      264.788     -75.026       7.667
  N      264.873     -73.635       7.231
  C      266.024     -72.935       7.622
  O      266.883     -73.492       8.309
  N      266.152     -71.624       7.237
  C      265.245     -71.070       6.494
  N      265.437     -69.761       6.141
  C      264.037     -71.781       6.029
  C      263.911     -73.042       6.439
  O      259.040     -77.168       5.461
  O      260.762     -76.162       3.853
  H      265.926     -76.128       9.712
  H      259.961     -75.810       3.425
  H      263.310     -71.284       5.403
  H      263.054     -73.641       6.143
  H      265.777     -75.491       7.526
  H      264.518     -74.319       9.769
  H      262.346     -74.486       8.720
  H      263.186     -77.353       7.965
  H      266.289     -69.325       6.470
  H      260.751     -76.814       7.670
  H      264.885     -69.289       5.444
  H      261.207     -75.444       6.632
  P      261.411     -75.279      11.158
  C      262.103     -73.658      13.035
  O      262.550     -74.596      12.069
  O      260.384     -76.056      11.911
  O      260.804     -74.023      10.372
  H      260.005     -74.293       9.853
  H      262.943     -73.274      13.575
  H      261.431     -74.139      13.715
  H      261.597     -72.853      12.543

 6  7  8  9  10  11  12  13  14  15  16  26  30  31  32  33  35 0
 6-311+G(2d,p)
 ****
 37  38 0
 6-311+G(2d,p)
 ****
 1  2  3  4  5  17  18  19  20  21  22  23  24  25 0
 3-21G
 ****
 27  28  29  34  36  39  40  41  42  43  44  45  46 0
 3-21G
 ****


