%nproc=1
%NoSave
%Mem=1900MB
#P OB98/GEN NMR

erre ene a

0 1
  C     -401.962    -229.413       9.073
  O     -403.096    -228.632       9.395
  H     -401.059    -228.942       9.468
  H     -402.074    -230.401       9.527
  H     -401.879    -229.530       7.988
  P     -403.139    -227.146       8.795
  C     -405.684    -227.181       8.282
  O     -404.632    -226.606       9.039
  C     -406.846    -226.200       8.160
  O     -407.539    -226.094       9.422
  C     -406.437    -224.774       7.802
  O     -406.193    -224.632       6.407
  C     -407.682    -224.007       8.228
  O     -408.706    -224.141       7.223
  C     -408.098    -224.755       9.505
  N     -408.219    -220.492      12.342
  C     -408.871    -220.848      11.210
  N     -408.801    -222.009      10.527
  C     -407.969    -222.869      11.132
  C     -407.251    -222.666      12.303
  C     -407.397    -221.410      12.919
  N     -406.667    -221.041      14.045
  N     -406.486    -223.779      12.608
  C     -406.724    -224.623      11.629
  N     -407.616    -224.127      10.719
  O     -403.081    -227.401       7.211
  O     -402.040    -226.243       9.251
  H     -408.842    -225.095       7.084
  H     -402.162    -227.299       6.904
  H     -409.531    -220.092      10.797
  H     -406.272    -225.607      11.539
  H     -409.185    -224.861       9.589
  H     -407.500    -222.936       8.366
  H     -405.583    -224.434       8.399
  H     -407.556    -226.599       7.423
  H     -406.036    -228.095       8.777
  H     -406.498    -220.042      14.100
  H     -405.890    -221.652      14.260
  H     -405.300    -227.441       7.288
  P     -404.825    -223.930       5.958
  C     -404.549    -224.697       3.497
  O     -404.950    -223.650       4.380
  O     -403.764    -225.128       6.048
  O     -404.396    -222.768       6.790
  H     -403.022    -224.874       6.639
  H     -404.683    -224.380       2.484
  H     -405.145    -225.566       3.681
  H     -403.518    -224.930       3.665

 6  7  8  9  10  11  12  13  14  15  25  28  32  33  34  35 0
 6-311+G(2d,p)
 ****
 36  39  40 0
 6-311+G(2d,p)
 ****
 1  2  3  4  5  16  17  18  19  20  21  22  23  24 0
 3-21G
 ****
 26  27  29  30  31  37  38  41  42  43  44  45  46  47  48 0
 3-21G
 ****


