%nproc=1
%NoSave
%Mem=1900MB
#P OB98/GEN NMR

erre ene a

0 1
  C     -206.436    -233.450    -253.632
  O     -206.845    -234.398    -254.596
  H     -205.799    -232.708    -254.120
  H     -205.862    -233.945    -252.845
  H     -207.303    -232.944    -253.201
  P     -207.868    -235.534    -254.107
  C     -206.763    -237.537    -255.328
  O     -207.878    -236.661    -255.254
  C     -206.316    -237.721    -256.779
  O     -205.666    -236.496    -257.232
  C     -205.322    -238.873    -256.991
  O     -205.595    -239.463    -258.270
  C     -203.985    -238.157    -257.076
  O     -202.990    -238.927    -257.745
  C     -204.406    -236.885    -257.810
  N     -199.579    -235.752    -258.677
  C     -200.299    -236.897    -258.964
  N     -199.629    -237.898    -259.576
  N     -201.563    -237.048    -258.675
  C     -202.114    -235.956    -258.095
  C     -201.515    -234.767    -257.753
  C     -200.104    -234.622    -258.056
  O     -199.411    -233.641    -257.809
  N     -202.408    -233.916    -257.151
  C     -203.544    -234.588    -257.132
  N     -203.417    -235.832    -257.691
  O     -209.290    -234.817    -254.269
  O     -207.650    -236.038    -252.720
  H     -202.189    -238.370    -257.835
  H     -209.556    -234.402    -253.428
  H     -198.605    -235.691    -258.911
  H     -204.480    -234.228    -256.723
  H     -204.559    -237.056    -258.883
  H     -203.617    -237.923    -256.068
  H     -198.670    -237.833    -259.871
  H     -205.351    -239.645    -256.214
  H     -200.149    -238.729    -259.834
  H     -207.207    -237.852    -257.403
  H     -207.047    -238.511    -254.915
  H     -205.938    -237.124    -254.734
  P     -205.615    -241.059    -258.375
  C     -204.242    -241.253    -260.576
  O     -205.486    -241.459    -259.922
  O     -207.142    -241.417    -258.046
  O     -204.673    -241.749    -257.444
  H     -207.196    -242.310    -257.655
  H     -204.319    -241.568    -261.596
  H     -203.482    -241.822    -260.083
  H     -203.989    -240.214    -260.541

 6  7  8  9  10  11  12  13  14  15  26  29  33  34 0
 6-311+G(2d,p)
 ****
 36  38  39  40  41 0
 6-311+G(2d,p)
 ****
 1  2  3  4  5  16  17  18  19  20  21  22  23  24  25 0
 3-21G
 ****
 27  28  30  31  32  35  37  42  43  44  45  46  47 0
 3-21G
 ****
 48  49 0
 3-21G
 ****


