%nproc=1
%NoSave
%Mem=1900MB
#P OB98/GEN NMR

erre ene a

0 1
  C      562.698     201.606    -193.258
  O      561.605     200.700    -193.417
  P      560.123     201.307    -193.517
  C      559.526     200.812    -190.974
  O      559.211     200.693    -192.350
  C      558.614     199.883    -190.162
  O      557.236     200.315    -190.283
  C      558.667     198.428    -190.615
  O      559.719     197.720    -190.000
  C      557.290     197.932    -190.232
  O      557.227     197.661    -188.823
  C      556.413     199.157    -190.602
  N      555.929     199.284    -191.987
  C      554.624     199.709    -192.239
  O      553.811     199.989    -191.354
  N      554.263     199.808    -193.553
  C      555.101     199.708    -194.632
  O      554.732     199.873    -195.794
  C      556.498     199.412    -194.316
  C      556.842     199.198    -193.030
  O      559.534     200.635    -194.848
  O      560.061     202.796    -193.567
  H      556.283     197.647    -188.574
  H      559.356     201.327    -195.516
  H      553.301     200.052    -193.749
  H      557.194     199.356    -195.136
  H      557.871     198.977    -192.795
  H      555.528     199.192    -189.956
  H      557.054     196.984    -190.736
  H      558.758     198.376    -191.712
  H      558.904     199.953    -189.110
  H      559.410     201.845    -190.641
  H      560.577     200.543    -190.823
  P      561.172     197.682    -190.682
  C      560.614     195.412    -191.749
  O      561.503     196.120    -190.909
  O      562.234     198.469    -189.997
  O      560.896     198.193    -192.169
  H      561.083     199.165    -192.250
  H      561.026     194.422    -191.947
  H      560.483     195.946    -192.693
  H      559.645     195.285    -191.248
  H      563.614     201.055    -193.207
  H      562.569     202.166    -192.356
  H      562.730     202.276    -194.092

 3  4  5  6  7  8  9  10  11  12  13  23  28  29  30  31  32 0
 6-311+G(2d,p)
 ****
 33  34 0
 6-311+G(2d,p)
 ****
 1  2  14  15  16  17  18  19  20  21  22  24  25  26  27 0
 3-21G
 ****
 35  36  37  38  39  40  41  42  43  44  45 0
 3-21G
 ****


