%nproc=1
%NoSave
%Mem=1900MB
#P OB98/GEN NMR

erre ene a

0 1
  C      176.045      44.316      26.785
  O      176.990      45.000      25.987
  H      176.424      43.311      26.992
  H      175.099      44.229      26.247
  H      175.890      44.837      27.733
  P      176.724      46.562      25.738
  C      174.711      47.787      24.651
  O      175.570      46.657      24.627
  C      173.422      47.485      23.892
  O      172.627      46.518      24.614
  C      172.523      48.698      23.676
  O      172.935      49.467      22.554
  C      171.191      48.015      23.414
  O      171.165      47.499      22.068
  C      171.226      46.861      24.424
  N      166.940      46.953      27.129
  C      167.155      46.569      25.819
  N      166.071      46.159      25.127
  N      168.325      46.588      25.236
  C      169.317      47.032      26.046
  C      169.229      47.438      27.359
  C      167.931      47.403      27.992
  O      167.689      47.710      29.156
  N      170.451      47.810      27.851
  C      171.275      47.649      26.834
  N      170.634      47.185      25.712
  O      178.035      47.041      24.948
  O      176.504      47.379      26.967
  H      171.331      48.254      21.474
  H      178.256      47.950      25.227
  H      166.017      46.929      27.525
  H      172.336      47.850      26.858
  H      170.715      45.966      24.053
  H      170.343      48.694      23.513
  H      165.134      46.166      25.500
  H      172.448      49.309      24.582
  H      166.208      45.841      24.176
  H      173.695      47.031      22.931
  H      175.218      48.635      24.179
  H      174.485      48.040      25.691
  P      172.203      50.877      22.310
  C      169.693      51.540      22.222
  O      170.665      50.519      22.024
  O      172.751      51.324      20.875
  O      172.454      51.908      23.356
  H      172.679      52.293      20.777
  H      168.721      51.156      21.993
  H      169.910      52.368      21.580
  H      169.718      51.863      23.242

 6  7  8  9  10  11  12  13  14  15  26  29  33  34 0
 6-311+G(2d,p)
 ****
 36  38  39  40  41 0
 6-311+G(2d,p)
 ****
 1  2  3  4  5  16  17  18  19  20  21  22  23  24  25 0
 3-21G
 ****
 27  28  30  31  32  35  37  42  43  44  45  46  47 0
 3-21G
 ****
 48  49 0
 3-21G
 ****


