%nproc=1
%NoSave
%Mem=1900MB
#P OB98/GEN NMR

erre ene a

0 1
  C     -191.809      25.853    -334.902
  O     -193.077      25.708    -335.521
  P     -193.593      26.783    -336.590
  C     -195.106      27.692    -334.717
  O     -195.033      27.280    -336.078
  C     -196.388      27.174    -334.066
  O     -197.517      27.558    -334.888
  C     -196.422      25.660    -333.916
  O     -197.093      25.331    -332.694
  C     -197.285      25.188    -335.076
  O     -197.910      23.924    -334.779
  C     -198.249      26.367    -335.233
  N     -202.419      26.800    -338.193
  C     -202.273      26.721    -336.855
  N     -201.139      26.584    -336.136
  C     -200.065      26.581    -336.947
  C     -200.056      26.657    -338.330
  C     -201.306      26.768    -338.965
  N     -201.452      26.860    -340.332
  N     -198.762      26.590    -338.813
  C     -198.011      26.500    -337.744
  N     -198.749      26.502    -336.586
  O     -193.564      26.330    -338.010
  O     -192.664      28.063    -336.354
  H     -198.464      24.058    -333.984
  H     -192.450      28.489    -337.205
  H     -203.195      26.776    -336.277
  H     -196.933      26.423    -337.745
  H     -199.104      26.284    -334.552
  H     -196.661      25.052    -335.966
  H     -195.426      25.204    -333.928
  H     -196.506      27.667    -333.090
  H     -195.103      28.786    -334.689
  H     -202.373      27.061    -340.689
  H     -200.621      27.011    -340.891
  H     -194.221      27.328    -334.181
  P     -196.196      24.588    -331.579
  C     -197.974      22.735    -331.138
  O     -197.259      23.841    -330.638
  O     -195.236      25.521    -330.917
  O     -195.514      23.429    -332.450
  H     -196.053      23.206    -333.240
  H     -198.669      22.387    -330.372
  H     -197.287      21.917    -331.381
  H     -198.543      23.016    -332.030
  H     -191.648      25.041    -334.225
  H     -191.778      26.777    -334.364
  H     -191.044      25.850    -335.650

 3  4  5  6  7  8  9  10  11  12  22  25  29  30  31  32 0
 6-311+G(2d,p)
 ****
 33  36  37 0
 6-311+G(2d,p)
 ****
 1  2  13  14  15  16  17  18  19  20  21  23  24  26 0
 3-21G
 ****
 27  28  34  35  38  39  40  41  42  43  44  45  46  47  48 0
 3-21G
 ****


