%nproc=1
%NoSave
%Mem=1900MB
#P OB98/GEN NMR

erre ene a

0 1
  C     -152.681     -54.700    -177.933
  O     -151.286     -54.896    -178.015
  H     -153.166     -55.293    -178.713
  H     -152.920     -53.647    -178.098
  H     -153.060     -55.020    -176.959
  P     -150.380     -54.244    -176.863
  C     -150.494     -56.398    -175.420
  O     -150.752     -55.004    -175.498
  C     -149.771     -56.732    -174.114
  O     -148.415     -56.220    -174.187
  C     -150.434     -56.133    -172.873
  O     -150.338     -57.077    -171.802
  C     -149.577     -54.921    -172.556
  O     -149.640     -54.546    -171.181
  C     -148.195     -55.385    -173.034
  N     -147.327     -54.253    -173.340
  C     -145.955     -54.512    -173.399
  O     -145.529     -55.649    -173.188
  N     -145.093     -53.472    -173.636
  C     -145.553     -52.263    -173.721
  N     -144.646     -51.271    -173.927
  C     -146.987     -51.934    -173.597
  C     -147.809     -52.967    -173.418
  O     -151.024     -52.794    -176.661
  O     -148.919     -54.181    -177.158
  H     -148.909     -53.916    -171.000
  H     -150.348     -52.140    -176.400
  H     -147.319     -50.908    -173.649
  H     -148.877     -52.822    -173.309
  H     -147.710     -56.003    -172.266
  H     -149.917     -54.066    -173.153
  H     -151.483     -55.867    -173.030
  H     -149.695     -57.823    -174.029
  H     -143.670     -51.535    -173.988
  H     -149.859     -56.691    -176.262
  H     -144.885     -50.292    -173.963
  H     -151.439     -56.947    -175.482
  P     -151.718     -57.635    -171.208
  C     -150.321     -59.789    -170.820
  O     -151.600     -59.228    -171.082
  O     -152.752     -57.423    -172.411
  O     -152.164     -56.932    -169.968
  H     -153.367     -56.699    -172.198
  H     -150.403     -60.854    -170.764
  H     -149.949     -59.411    -169.891
  H     -149.647     -59.524    -171.608

 6  7  8  9  10  11  12  13  14  15  16  26  30  31  32  33  35 0
 6-311+G(2d,p)
 ****
 37  38 0
 6-311+G(2d,p)
 ****
 1  2  3  4  5  17  18  19  20  21  22  23  24  25 0
 3-21G
 ****
 27  28  29  34  36  39  40  41  42  43  44  45  46 0
 3-21G
 ****


