%nproc=1
%NoSave
%Mem=1900MB
#P OB98/GEN NMR

erre ene a

0 1
  C      962.547     678.857     415.328
  O      961.864     677.608     415.514
  P      961.085     677.371     416.902
  C      958.632     677.288     415.992
  O      959.725     676.578     416.570
  C      957.898     676.412     415.000
  O      958.628     676.235     413.764
  C      957.624     674.998     415.517
  O      956.455     674.944     416.330
  C      957.364     674.255     414.204
  O      956.004     674.508     413.766
  C      958.368     674.912     413.265
  N      960.654     670.991     411.019
  C      959.348     671.454     410.888
  N      958.550     670.791     410.028
  N      958.883     672.489     411.538
  C      959.809     673.069     412.341
  C      961.120     672.697     412.559
  C      961.615     671.533     411.841
  O      962.754     671.068     411.941
  N      961.731     673.527     413.447
  C      960.809     674.411     413.784
  N      959.614     674.172     413.141
  O      960.565     678.839     417.250
  O      961.930     676.802     417.989
  H      955.422     674.114     414.428
  H      960.470     678.941     418.220
  H      960.961     670.186     410.501
  H      960.948     675.251     414.471
  H      957.967     675.034     412.232
  H      957.461     673.175     414.311
  H      958.855     670.004     409.448
  H      958.504     674.571     416.007
  H      957.609     671.138     409.894
  H      956.939     676.896     414.755
  H      959.002     678.186     415.496
  H      957.981     677.651     416.804
  P      956.609     674.309     417.813
  C      955.300     676.297     418.855
  O      955.382     674.901     418.676
  O      957.893     675.068     418.383
  O      956.775     672.832     417.837
  H      958.381     674.477     419.013
  H      954.332     676.538     419.311
  H      955.367     676.841     417.905
  H      956.101     676.631     419.527
  H      963.014     678.868     414.366
  H      963.292     678.973     416.087
  H      961.844     679.661     415.392

 3  4  5  6  7  8  9  10  11  12  23  26  30  31 0
 6-311+G(2d,p)
 ****
 33  35  36  37  38 0
 6-311+G(2d,p)
 ****
 1  2  13  14  15  16  17  18  19  20  21  22  24  25 0
 3-21G
 ****
 27  28  29  32  34  39  40  41  42  43  44  45  46  47  48  49 0
 3-21G
 ****


