%nproc=1
%NoSave
%Mem=1900MB
#P OB98/GEN NMR

erre ene a

0 1
  C      141.869    -199.701    -125.073
  O      141.619    -198.992    -126.280
  P      140.509    -197.834    -126.264
  C      138.640    -199.528    -126.867
  O      139.099    -198.540    -125.955
  C      137.160    -199.334    -127.190
  O      136.373    -199.638    -126.007
  C      136.784    -197.915    -127.633
  O      135.713    -198.033    -128.579
  C      136.254    -197.288    -126.360
  O      135.424    -196.160    -126.618
  C      135.541    -198.486    -125.740
  N      132.177    -197.297    -122.075
  C      132.050    -197.389    -123.418
  N      132.993    -197.713    -124.328
  C      134.170    -197.954    -123.726
  C      134.459    -197.866    -122.375
  C      133.394    -197.524    -121.523
  N      133.517    -197.441    -120.157
  N      135.787    -198.160    -122.143
  C      136.291    -198.420    -123.332
  N      135.346    -198.330    -124.314
  O      140.397    -197.433    -127.809
  O      140.837    -196.651    -125.417
  H      135.934    -195.518    -127.146
  H      140.754    -196.534    -127.947
  H      131.058    -197.183    -123.812
  H      137.324    -198.671    -123.532
  H      134.560    -198.665    -126.198
  H      137.091    -196.955    -125.734
  H      137.615    -197.349    -128.070
  H      136.877    -200.064    -127.960
  H      138.774    -200.513    -126.413
  H      132.682    -197.325    -119.608
  H      134.365    -197.790    -119.722
  H      139.238    -199.485    -127.783
  P      135.872    -197.236    -129.961
  C      134.707    -195.212    -128.831
  O      135.797    -195.678    -129.602
  O      134.486    -197.520    -130.711
  O      137.042    -197.663    -130.783
  H      134.614    -197.475    -131.677
  H      135.045    -194.385    -128.202
  H      134.294    -195.998    -128.191
  H      133.922    -194.849    -129.503
  H      142.629    -200.435    -125.242
  H      140.971    -200.185    -124.751
  H      142.196    -199.016    -124.318

 3  4  5  6  7  8  9  10  11  12  22  25  29  30  31  32 0
 6-311+G(2d,p)
 ****
 33  36  37 0
 6-311+G(2d,p)
 ****
 1  2  13  14  15  16  17  18  19  20  21  23  24  26 0
 3-21G
 ****
 27  28  34  35  38  39  40  41  42  43  44  45  46  47  48 0
 3-21G
 ****


