%nproc=1
%NoSave
%Mem=1900MB
#P OB98/GEN NMR

erre ene a

0 1
  C     -283.666     -16.215       8.978
  O     -282.836     -17.357       8.913
  P     -281.676     -17.612       9.989
  C     -280.007     -16.184       8.649
  O     -280.695     -16.344       9.881
  C     -278.726     -15.371       8.827
  O     -278.028     -15.273       7.555
  C     -278.941     -13.940       9.344
  O     -277.809     -13.634      10.164
  C     -278.911     -13.125       8.068
  O     -278.656     -11.745       8.304
  C     -277.834     -13.871       7.271
  N     -277.906     -13.582       5.842
  C     -276.921     -12.738       5.319
  O     -276.089     -12.217       6.069
  N     -276.929     -12.460       3.978
  C     -277.900     -12.899       3.240
  N     -277.853     -12.599       1.913
  C     -279.029     -13.690       3.772
  C     -278.961     -14.000       5.069
  O     -281.000     -18.938       9.892
  O     -282.402     -17.366      11.393
  H     -278.421     -11.322       7.448
  H     -282.958     -18.149      11.637
  H     -279.845     -13.985       3.134
  H     -279.740     -14.574       5.547
  H     -276.831     -13.602       7.630
  H     -279.880     -13.199       7.555
  H     -279.872     -13.814       9.905
  H     -278.069     -15.921       9.514
  H     -277.056     -12.069       1.588
  H     -280.669     -15.651       7.960
  H     -278.512     -12.961       1.241
  H     -279.790     -17.164       8.210
  P     -277.870     -12.474      11.268
  C     -276.253     -10.927      10.027
  O     -277.570     -11.093      10.516
  O     -277.042     -12.719      12.488
  O     -279.427     -12.358      11.634
  H     -279.527     -11.868      12.473
  H     -276.242     -10.106       9.305
  H     -275.900     -11.839       9.531
  H     -275.583     -10.685      10.857
  H     -284.369     -16.238       8.171
  H     -283.065     -15.333       8.902
  H     -284.192     -16.209       9.910

 3  4  5  6  7  8  9  10  11  12  13  23  27  28  29  30  32 0
 6-311+G(2d,p)
 ****
 34  35 0
 6-311+G(2d,p)
 ****
 1  2  14  15  16  17  18  19  20  21  22  24  25  26 0
 3-21G
 ****
 31  33  36  37  38  39  40  41  42  43  44  45  46 0
 3-21G
 ****


