%nproc=1
%NoSave
%Mem=1900MB
#P OB98/GEN NMR

erre ene a

0 1
  C     -662.585     423.109     438.416
  O     -662.849     423.607     439.713
  H     -661.522     423.234     438.196
  H     -663.156     423.664     437.666
  H     -662.839     422.047     438.359
  P     -664.376     423.685     440.204
  C     -665.507     423.265     442.492
  O     -664.397     422.986     441.644
  C     -666.204     421.969     442.890
  O     -666.783     421.336     441.730
  C     -665.264     420.939     443.496
  O     -664.939     421.278     444.835
  C     -666.074     419.668     443.321
  O     -667.073     419.548     444.336
  C     -666.721     419.908     441.941
  N     -665.995     419.255     440.853
  C     -666.774     418.823     439.770
  O     -667.990     419.011     439.761
  N     -666.143     418.172     438.736
  C     -664.864     417.987     438.769
  N     -664.309     417.336     437.702
  C     -664.005     418.435     439.879
  C     -664.631     419.047     440.880
  O     -665.414     423.180     439.258
  O     -664.580     425.236     440.551
  H     -667.651     418.813     444.059
  H     -664.887     425.727     439.768
  H     -662.941     418.258     439.861
  H     -664.080     419.411     441.740
  H     -667.754     419.538     441.919
  H     -665.440     418.785     443.360
  H     -664.358     420.849     442.886
  H     -667.021     422.216     443.590
  H     -664.931     417.039     436.971
  H     -666.193     423.910     441.934
  H     -663.312     417.208     437.582
  H     -665.180     423.806     443.385
  P     -663.561     420.770     445.487
  C     -661.997     421.668     447.328
  O     -663.094     421.959     446.464
  O     -662.532     420.286     444.521
  O     -664.049     419.643     446.512
  H     -664.312     418.808     446.040
  H     -661.777     422.527     447.927
  H     -661.139     421.413     446.742
  H     -662.252     420.846     447.964

 6  7  8  9  10  11  12  13  14  15  16  26  30  31  32  33  35 0
 6-311+G(2d,p)
 ****
 37  38 0
 6-311+G(2d,p)
 ****
 1  2  3  4  5  17  18  19  20  21  22  23  24  25 0
 3-21G
 ****
 27  28  29  34  36  39  40  41  42  43  44  45  46 0
 3-21G
 ****


