%nproc=1
%NoSave
%Mem=1900MB
#P OB98/GEN NMR

erre ene a

0 1
  C       12.983      38.488    -306.143
  O       12.736      39.702    -305.454
  P       11.407      39.812    -304.566
  C       12.383      39.706    -302.163
  O       11.666      39.032    -303.187
  C       11.533      39.831    -300.897
  O       10.315      40.561    -301.200
  C       11.118      38.482    -300.301
  O       11.058      38.593    -298.871
  C        9.701      38.296    -300.800
  O        8.962      37.409    -299.962
  C        9.202      39.741    -300.791
  N        4.157      39.759    -301.071
  C        4.972      39.783    -299.958
  N        4.356      39.715    -298.758
  N        6.275      39.871    -300.015
  C        6.753      39.926    -301.283
  C        6.044      39.926    -302.464
  C        4.604      39.816    -302.385
  O        3.827      39.762    -303.332
  N        6.875      40.029    -303.547
  C        8.088      40.048    -303.032
  N        8.067      39.950    -301.664
  O       10.378      38.864    -305.346
  O       10.862      41.193    -304.429
  H        8.924      37.820    -299.077
  H        9.727      39.407    -305.828
  H        3.157      39.679    -300.975
  H        9.008      40.103    -303.599
  H        8.912      40.059    -299.782
  H        9.711      37.881    -301.814
  H        3.362      39.578    -298.649
  H       11.771      37.646    -300.571
  H        4.933      39.685    -297.928
  H       12.087      40.425    -300.161
  H       12.651      40.704    -302.513
  H       13.306      39.162    -301.943
  P       11.518      37.295    -298.045
  C       14.032      37.967    -298.093
  O       13.040      37.030    -298.461
  O       10.717      36.106    -298.752
  O       11.246      37.375    -296.579
  H       10.590      35.367    -298.127
  H       14.742      37.484    -297.417
  H       13.609      38.845    -297.595
  H       14.563      38.294    -298.990
  H       13.900      38.567    -306.688
  H       12.180      38.294    -306.823
  H       13.055      37.686    -305.438

 3  4  5  6  7  8  9  10  11  12  23  26  30  31 0
 6-311+G(2d,p)
 ****
 33  35  36  37  38 0
 6-311+G(2d,p)
 ****
 1  2  13  14  15  16  17  18  19  20  21  22  24  25 0
 3-21G
 ****
 27  28  29  32  34  39  40  41  42  43  44  45  46  47  48  49 0
 3-21G
 ****


