%nproc=1
%NoSave
%Mem=1900MB
#P OB98/GEN NMR

erre ene a

0 1
  C        7.924      53.413     136.956
  O        8.968      53.527     136.009
  H        7.601      52.369     136.994
  H        7.073      54.028     136.654
  H        8.267      53.710     137.950
  P        9.694      54.945     135.827
  C        9.091      55.247     133.346
  O       10.136      55.041     134.285
  C        9.279      54.345     132.128
  O        8.753      53.029     132.436
  C        8.567      54.854     130.870
  O        9.390      54.573     129.738
  C        7.311      54.006     130.810
  O        6.812      53.870     129.481
  C        7.790      52.690     131.419
  N        3.211      50.781     130.475
  C        4.094      51.433     129.638
  N        3.693      51.631     128.365
  N        5.271      51.858     130.018
  C        5.549      51.581     131.315
  C        4.759      50.945     132.243
  C        3.453      50.491     131.814
  O        2.623      49.919     132.511
  N        5.384      50.877     133.463
  C        6.546      51.474     133.273
  N        6.689      51.928     131.989
  O       10.790      55.234     136.802
  O        8.505      56.007     135.935
  H        6.448      54.744     129.220
  H        8.482      56.409     136.823
  H        2.313      50.483     130.133
  H        7.311      51.610     134.027
  H        8.278      52.041     130.682
  H        6.526      54.462     131.426
  H        2.808      51.317     127.997
  H        8.341      55.924     130.911
  H        4.334      52.087     127.725
  H       10.354      54.223     131.948
  H        9.112      56.297     133.034
  H        8.127      55.039     133.822
  P       10.103      55.792     128.980
  C        9.543      55.540     126.479
  O       10.501      55.303     127.506
  O       11.190      56.478     129.740
  O        8.880      56.794     128.694
  H        9.219      57.710     128.687
  H        9.920      55.172     125.548
  H        9.358      56.591     126.399
  H        8.631      55.035     126.719

 6  7  8  9  10  11  12  13  14  15  26  29  33  34 0
 6-311+G(2d,p)
 ****
 36  38  39  40  41 0
 6-311+G(2d,p)
 ****
 1  2  3  4  5  16  17  18  19  20  21  22  23  24  25 0
 3-21G
 ****
 27  28  30  31  32  35  37  42  43  44  45  46  47 0
 3-21G
 ****
 48  49 0
 3-21G
 ****


