%nproc=1
%NoSave
%Mem=1900MB
#P OB98/GEN NMR

erre ene a

0 1
  C     -279.260     -91.979    -669.647
  O     -279.957     -90.754    -669.759
  H     -279.956     -92.799    -669.843
  H     -278.856     -92.093    -668.637
  H     -278.448     -92.022    -670.379
  P     -279.108     -89.420    -669.479
  C     -278.566     -89.060    -671.989
  O     -278.056     -89.301    -670.688
  C     -277.639     -88.123    -672.760
  O     -277.605     -86.817    -672.142
  C     -276.196     -88.602    -672.853
  O     -276.034     -89.541    -673.901
  C     -275.465     -87.294    -673.115
  O     -275.538     -86.914    -674.504
  C     -276.247     -86.306    -672.236
  N     -272.016     -85.330    -669.657
  C     -272.241     -85.376    -671.018
  N     -271.161     -85.184    -671.811
  N     -273.408     -85.598    -671.556
  C     -274.385     -85.805    -670.641
  C     -274.294     -85.774    -669.269
  C     -272.997     -85.490    -668.688
  O     -272.749     -85.372    -667.491
  N     -275.510     -86.011    -668.682
  C     -276.327     -86.230    -669.696
  N     -275.687     -86.134    -670.905
  O     -278.186     -89.819    -668.230
  O     -279.914     -88.197    -669.199
  H     -275.294     -87.674    -675.057
  H     -278.013     -89.023    -667.696
  H     -271.095     -85.137    -669.305
  H     -277.376     -86.462    -669.607
  H     -276.306     -85.310    -672.686
  H     -274.404     -87.370    -672.871
  H     -270.221     -85.340    -671.471
  H     -275.863     -89.019    -671.895
  H     -271.312     -85.235    -672.810
  H     -278.066     -87.993    -673.762
  H     -279.557     -88.594    -671.905
  H     -278.665     -90.011    -672.522
  P     -274.719     -90.463    -673.883
  C     -275.658     -92.050    -672.044
  O     -274.648     -91.118    -672.420
  O     -273.524     -89.398    -673.868
  O     -274.607     -91.415    -675.026
  H     -272.688     -89.828    -674.124
  H     -275.473     -92.394    -671.048
  H     -275.644     -92.882    -672.717
  H     -276.615     -91.574    -672.085

 6  7  8  9  10  11  12  13  14  15  26  29  33  34 0
 6-311+G(2d,p)
 ****
 36  38  39  40  41 0
 6-311+G(2d,p)
 ****
 1  2  3  4  5  16  17  18  19  20  21  22  23  24  25 0
 3-21G
 ****
 27  28  30  31  32  35  37  42  43  44  45  46  47 0
 3-21G
 ****
 48  49 0
 3-21G
 ****


