%nproc=1
%NoSave
%Mem=1900MB
#P OB98/GEN NMR

erre ene a

0 1
  C      -77.523     433.362      43.266
  O      -77.899     432.195      43.978
  P      -77.192     431.813      45.360
  C      -76.699     429.353      44.586
  O      -76.219     430.575      45.105
  C      -75.670     428.800      43.588
  O      -75.215     429.849      42.711
  C      -74.453     428.221      44.303
  O      -74.598     426.823      44.491
  C      -73.316     428.591      43.373
  O      -73.229     427.654      42.284
  C      -73.775     429.974      42.854
  N      -73.503     431.159      43.694
  C      -73.689     432.432      43.165
  O      -74.104     432.649      42.028
  N      -73.353     433.475      43.994
  C      -72.907     433.357      45.279
  O      -72.386     434.269      45.915
  C      -72.995     432.015      45.859
  C      -73.263     430.992      45.049
  O      -78.387     431.175      46.212
  O      -76.533     432.947      46.077
  H      -73.975     427.845      41.682
  H      -78.755     431.832      46.831
  H      -73.353     434.397      43.569
  H      -72.786     431.899      46.911
  H      -73.291     429.981      45.451
  H      -73.360     430.181      41.861
  H      -72.355     428.550      43.885
  H      -74.298     428.729      45.264
  H      -76.153     428.028      42.976
  H      -77.665     429.509      44.091
  H      -76.862     428.640      45.398
  P      -74.644     426.222      45.974
  C      -72.669     424.721      45.323
  O      -73.162     425.668      46.248
  O      -75.748     425.256      46.243
  O      -74.753     427.530      46.897
  H      -75.689     427.679      47.146
  H      -71.604     424.562      45.515
  H      -72.796     425.079      44.297
  H      -73.196     423.770      45.452
  H      -78.108     433.440      42.374
  H      -76.486     433.304      43.008
  H      -77.691     434.223      43.879

 3  4  5  6  7  8  9  10  11  12  13  23  28  29  30  31  32 0
 6-311+G(2d,p)
 ****
 33  34 0
 6-311+G(2d,p)
 ****
 1  2  14  15  16  17  18  19  20  21  22  24  25  26  27 0
 3-21G
 ****
 35  36  37  38  39  40  41  42  43  44  45 0
 3-21G
 ****


