%nproc=1
%NoSave
%Mem=1900MB
#P OB98/GEN NMR

erre ene a

0 1
  C     -683.005     821.766     -26.425
  O     -682.702     820.924     -27.531
  P     -681.681     819.723     -27.287
  C     -679.753     820.937     -28.519
  O     -680.215     820.376     -27.300
  C     -678.323     820.503     -28.805
  O     -677.445     821.001     -27.784
  C     -678.117     818.981     -28.826
  O     -678.502     818.409     -30.061
  C     -676.612     818.898     -28.624
  O     -675.943     819.098     -29.886
  C     -676.326     820.080     -27.679
  N     -673.124     819.669     -23.766
  C     -672.914     820.156     -25.041
  N     -671.673     820.617     -25.310
  N     -673.820     820.164     -25.971
  C     -675.025     819.714     -25.547
  C     -675.365     819.221     -24.314
  C     -674.328     819.145     -23.310
  O     -674.452     818.672     -22.181
  N     -676.695     818.870     -24.269
  C     -677.162     819.193     -25.452
  N     -676.183     819.690     -26.283
  O     -681.734     818.910     -28.668
  O     -682.000     818.848     -26.113
  H     -676.182     818.361     -30.469
  H     -681.483     817.973     -28.513
  H     -672.393     819.704     -23.070
  H     -678.203     819.081     -25.754
  H     -675.427     820.627     -27.972
  H     -676.282     817.926     -28.254
  H     -670.961     820.740     -24.601
  H     -678.626     818.515     -27.971
  H     -671.487     820.999     -26.226
  H     -678.006     820.948     -29.770
  H     -679.783     822.033     -28.455
  H     -680.420     820.624     -29.333
  P     -679.125     816.929     -30.013
  C     -677.135     815.939     -31.357
  O     -677.859     815.945     -30.147
  O     -679.883     816.796     -31.411
  O     -680.029     816.686     -28.840
  H     -680.593     816.151     -31.342
  H     -677.074     816.942     -31.796
  H     -677.612     815.263     -32.069
  H     -676.111     815.583     -31.155
  H     -683.697     822.522     -26.732
  H     -682.107     822.227     -26.071
  H     -683.439     821.182     -25.640

 3  4  5  6  7  8  9  10  11  12  23  26  30  31  33  0
 6-311+G(2d,p)
 ****
 35  36  37  38 0
 6-311+G(2d,p)
 ****
 1  2  13  14  15  16  17  18  19  20  21  22  24  25  27  28  29 0
 3-21G
 ****
 32  34  39  40  41  42  43  44  45  46  47  48  49 0
 3-21G
 ****


