%nproc=1
%NoSave
%Mem=1900MB
#P OB98/GEN NMR

erre ene a

0 1
  C      820.279     125.719     237.163
  O      820.980     124.494     237.239
  H      820.592     126.247     236.257
  H      820.520     126.337     238.031
  H      819.201     125.549     237.115
  P      820.515     123.470     238.385
  C      822.915     122.475     238.312
  O      821.518     122.216     238.308
  C      823.689     121.215     237.929
  O      823.443     120.162     238.891
  C      823.315     120.643     236.563
  O      823.993     121.311     235.508
  C      823.810     119.214     236.720
  O      825.241     119.171     236.575
  C      823.407     118.891     238.168
  N      820.771     114.567     238.067
  C      822.122     114.792     237.859
  N      822.878     113.706     237.576
  N      822.687     115.971     237.917
  C      821.805     116.965     238.200
  C      820.454     116.866     238.427
  C      819.845     115.559     238.364
  O      818.663     115.294     238.567
  N      819.897     118.093     238.699
  C      820.912     118.937     238.607
  N      822.091     118.300     238.307
  O      819.139     122.877     237.815
  O      820.333     124.065     239.740
  H      825.442     119.511     235.684
  H      818.529     122.727     238.565
  H      820.392     113.635     237.995
  H      820.845     120.002     238.756
  H      824.121     118.222     238.660
  H      823.387     118.536     235.967
  H      822.500     112.779     237.466
  H      822.227     120.640     236.411
  H      823.871     113.834     237.456
  H      824.761     121.451     237.970
  H      823.220     122.792     239.317
  H      823.128     123.280     237.599
  P      823.108     121.903     234.309
  C      825.005     121.373     232.617
  O      824.148     122.363     233.180
  O      822.573     123.293     234.915
  O      821.982     121.028     233.857
  H      821.759     123.569     234.455
  H      825.639     121.825     231.883
  H      824.414     120.610     232.156
  H      825.606     120.941     233.389

 6  7  8  9  10  11  12  13  14  15  26  29  33  34 0
 6-311+G(2d,p)
 ****
 36  38  39  40  41 0
 6-311+G(2d,p)
 ****
 1  2  3  4  5  16  17  18  19  20  21  22  23  24  25 0
 3-21G
 ****
 27  28  30  31  32  35  37  42  43  44  45  46  47 0
 3-21G
 ****
 48  49 0
 3-21G
 ****


