%nproc=1
%NoSave
%Mem=1900MB
#P OB98/GEN NMR

erre ene a

0 1
  C      201.540    -265.385     607.743
  O      201.381    -266.706     607.279
  H      200.879    -265.228     608.601
  H      201.263    -264.677     606.960
  H      202.572    -265.206     608.059
  P      202.373    -267.209     606.122
  C      203.292    -269.221     607.488
  O      203.583    -267.981     606.855
  C      204.412    -269.585     608.467
  O      205.134    -268.386     608.836
  C      203.902    -270.245     609.755
  O      204.826    -271.273     610.131
  C      203.948    -269.120     610.774
  O      204.066    -269.595     612.115
  C      205.146    -268.297     610.271
  N      205.066    -266.911     610.730
  C      205.150    -266.702     612.110
  O      205.273    -267.651     612.878
  N      205.042    -265.422     612.596
  C      204.775    -264.447     611.775
  N      204.629    -263.212     612.322
  C      204.598    -264.633     610.326
  C      204.766    -265.880     609.870
  O      203.065    -265.863     605.608
  O      201.730    -267.979     605.016
  H      204.018    -268.816     612.719
  H      203.279    -265.913     604.660
  H      204.350    -263.797     609.685
  H      204.659    -266.113     608.820
  H      206.086    -268.733     610.624
  H      203.027    -268.535     610.711
  H      202.903    -270.677     609.655
  H      205.123    -270.240     607.947
  H      204.736    -263.116     613.332
  H      203.219    -270.009     606.723
  H      204.381    -262.387     611.791
  H      202.334    -269.147     608.017
  P      204.700    -272.680     609.372
  C      207.055    -272.559     608.280
  O      205.650    -272.638     608.085
  O      203.226    -272.634     608.763
  O      204.895    -273.870     610.265
  H      202.642    -273.248     609.243
  H      207.546    -272.540     607.330
  H      207.386    -273.411     608.836
  H      207.290    -271.667     608.822

 6  7  8  9  10  11  12  13  14  15  16  26  30  31  32  33  35 0
 6-311+G(2d,p)
 ****
 37  38 0
 6-311+G(2d,p)
 ****
 1  2  3  4  5  17  18  19  20  21  22  23  24  25 0
 3-21G
 ****
 27  28  29  34  36  39  40  41  42  43  44  45  46 0
 3-21G
 ****


