%nproc=1
%NoSave
%Mem=1900MB
#P OB98/GEN NMR

erre ene a

0 1
  C      344.126    -334.470    -392.043
  O      343.439    -333.400    -391.380
  P      344.054    -332.843    -390.012
  C      344.728    -330.428    -390.710
  O      343.839    -331.256    -389.977
  C      344.504    -328.957    -390.357
  O      343.158    -328.528    -390.677
  C      344.693    -328.648    -388.876
  O      346.062    -328.457    -388.549
  C      343.944    -327.329    -388.757
  O      344.774    -326.250    -389.226
  C      342.753    -327.544    -389.695
  N      338.103    -326.245    -388.172
  C      339.050    -325.521    -388.872
  N      338.702    -324.259    -389.226
  N      340.231    -325.983    -389.200
  C      340.432    -327.257    -388.796
  C      339.577    -328.079    -388.097
  C      338.283    -327.551    -387.732
  O      337.411    -328.146    -387.102
  N      340.144    -329.305    -387.867
  C      341.329    -329.235    -388.439
  N      341.557    -328.006    -389.006
  O      345.637    -332.977    -390.251
  O      343.616    -333.583    -388.791
  H      344.212    -325.452    -389.243
  H      346.093    -333.090    -389.396
  H      337.216    -325.838    -387.946
  H      342.049    -330.043    -388.473
  H      342.475    -326.628    -390.234
  H      343.679    -327.092    -387.716
  H      337.790    -323.860    -389.048
  H      344.222    -329.415    -388.245
  H      339.365    -323.724    -389.768
  H      345.209    -328.352    -390.944
  H      344.591    -330.579    -391.784
  H      345.757    -330.736    -390.497
  P      346.749    -329.509    -387.552
  C      348.617    -330.360    -389.144
  O      348.282    -329.606    -387.998
  O      346.119    -330.903    -388.020
  O      346.500    -329.246    -386.103
  H      346.044    -331.507    -387.254
  H      349.667    -330.182    -389.384
  H      348.003    -330.065    -390.000
  H      348.480    -331.427    -388.943
  H      343.599    -334.732    -392.937
  H      344.173    -335.320    -391.394
  H      345.118    -334.156    -392.293

 3  4  5  6  7  8  9  10  11  12  23  26  30  31 0
 6-311+G(2d,p)
 ****
 33  35  36  37  38 0
 6-311+G(2d,p)
 ****
 1  2  13  14  15  16  17  18  19  20  21  22  24  25 0
 3-21G
 ****
 27  28  29  32  34  39  40  41  42  43  44  45  46  47  48  49 0
 3-21G
 ****


