%nproc=1
%NoSave
%Mem=1900MB
#P OB98/GEN NMR

erre ene a

0 1
  C      337.979     -92.804     102.898
  O      339.128     -92.085     102.486
  H      337.388     -93.056     102.017
  H      337.376     -92.191     103.569
  H      338.273     -93.727     103.406
  P      340.155     -91.655     103.642
  C      340.323     -89.564     105.201
  O      339.513     -90.359     104.339
  C      339.539     -89.165     106.450
  O      338.458     -88.268     106.055
  C      338.879     -90.357     107.176
  O      338.800     -90.051     108.579
  C      337.482     -90.352     106.579
  O      336.606     -91.118     107.376
  C      337.229     -88.853     106.541
  N      332.142     -88.767     106.149
  C      332.965     -89.106     107.169
  N      334.314     -89.092     107.198
  C      334.802     -88.649     106.026
  C      334.092     -88.262     104.903
  C      332.689     -88.343     104.994
  N      331.852     -88.015     103.953
  N      334.956     -87.885     103.888
  C      336.158     -88.031     104.393
  N      336.122     -88.483     105.687
  O      341.401     -91.066     102.825
  O      340.562     -92.735     104.582
  H      336.451     -90.690     108.239
  H      342.060     -91.769     102.674
  H      332.471     -89.438     108.080
  H      337.095     -87.835     103.879
  H      337.030     -88.426     107.537
  H      337.479     -90.782     105.576
  H      339.419     -91.299     107.032
  H      340.194     -88.600     107.125
  H      340.636     -88.670     104.647
  H      341.211     -90.137     105.490
  H      330.856     -88.129     104.086
  H      332.242     -87.734     103.058
  P      339.381     -91.109     109.643
  C      338.548     -93.325     110.751
  O      338.206     -92.076     110.166
  O      339.656     -90.186     110.924
  O      340.641     -91.809     109.233
  H      340.534     -90.389     111.292
  H      337.656     -93.839     111.042
  H      339.161     -93.160     111.612
  H      339.085     -93.917     110.039

 6  7  8  9  10  11  12  13  14  15  25  28  32  33  34  35 0
 6-311+G(2d,p)
 ****
 36  37  40 0
 6-311+G(2d,p)
 ****
 1  2  3  4  5  16  17  18  19  20  21  22  23  24 0
 3-21G
 ****
 26  27  29  30  31  38  39 41  42  43  44  45  46  47  48 0
 3-21G
 ****


