%nproc=1
%NoSave
%Mem=1900MB
#P OB98/GEN NMR

erre ene a

0 1
  C       48.775     -43.917      15.962
  O       47.999     -44.822      16.727
  P       47.657     -46.255      16.100
  C       46.178     -45.348      14.164
  O       46.247     -46.131      15.344
  C       44.813     -45.514      13.493
  O       44.781     -44.728      12.263
  C       44.475     -46.964      13.116
  O       43.057     -47.128      13.261
  C       44.845     -47.016      11.646
  O       44.230     -48.089      10.952
  C       44.387     -45.622      11.204
  N       44.953     -45.219       9.918
  C       44.331     -45.693       8.769
  O       43.343     -46.426       8.773
  N       44.923     -45.346       7.584
  C       46.097     -44.666       7.441
  O       46.635     -44.489       6.355
  C       46.710     -44.190       8.690
  C       46.120     -44.482       9.852
  O       47.322     -47.146      17.385
  O       48.748     -46.851      15.275
  H       44.377     -47.945       9.999
  H       48.088     -47.700      17.624
  H       44.479     -45.672       6.740
  H       47.631     -43.628       8.612
  H       46.562     -44.161      10.789
  H       43.291     -45.586      11.146
  H       45.931     -47.129      11.548
  H       45.008     -47.708      13.714
  H       44.044     -45.105      14.159
  H       46.958     -45.671      13.473
  H       46.362     -44.296      14.409
  P       42.532     -48.225      14.311
  C       43.311     -50.416      13.118
  O       42.247     -49.561      13.478
  O       41.071     -47.652      14.634
  O       43.400     -48.364      15.519
  H       40.603     -47.349      13.839
  H       44.090     -50.433      13.885
  H       43.743     -50.079      12.174
  H       42.922     -51.429      12.988
  H       48.915     -43.012      16.515
  H       48.269     -43.700      15.045
  H       49.727     -44.356      15.748

 3  4  5  6  7  8  9  10  11  12  13  23  28  29  30  31  32 0
 6-311+G(2d,p)
 ****
 33  34 0
 6-311+G(2d,p)
 ****
 1  2  14  15  16  17  18  19  20  21  22  24  25  26 0
 3-21G
 ****
 27  35  36  37  38  39  40  41  42  43  44  45 0
 3-21G
 ****


