%nproc=1
%NoSave
%Mem=1900MB
#P OB98/GEN NMR

erre ene a

0 1
  C     -738.001    -680.733    -643.286
  O     -738.456    -681.035    -641.972
  P     -739.747    -681.965    -641.811
  C     -738.695    -683.220    -639.735
  O     -739.762    -682.447    -640.270
  C     -738.765    -683.232    -638.211
  O     -738.486    -681.874    -637.714
  C     -740.127    -683.643    -637.618
  O     -739.854    -684.377    -636.406
  C     -740.788    -682.318    -637.302
  O     -741.792    -682.435    -636.328
  C     -739.550    -681.488    -636.852
  N     -739.789    -680.045    -636.927
  C     -740.024    -679.359    -635.738
  O     -740.078    -679.912    -634.631
  N     -740.228    -678.012    -635.859
  C     -740.293    -677.296    -637.040
  O     -740.493    -676.094    -637.077
  C     -740.076    -678.084    -638.256
  C     -739.828    -679.392    -638.147
  O     -739.306    -683.270    -642.614
  O     -741.024    -681.331    -642.270
  H     -738.358    -683.466    -642.528
  H     -742.399    -683.151    -636.585
  H     -740.369    -677.490    -635.005
  H     -740.136    -677.564    -639.204
  H     -739.674    -679.996    -639.050
  H     -739.272    -681.762    -635.828
  H     -741.216    -681.906    -638.225
  H     -740.693    -684.268    -638.331
  H     -737.946    -683.874    -637.832
  H     -737.746    -682.792    -640.063
  H     -738.752    -684.243    -640.140
  P     -739.858    -685.985    -636.484
  C     -737.946    -686.494    -634.772
  O     -739.329    -686.525    -635.078
  O     -738.617    -686.248    -637.465
  O     -741.128    -686.584    -636.996
  H     -737.824    -685.734    -637.208
  H     -737.829    -686.582    -633.668
  H     -737.492    -685.545    -635.088
  H     -737.434    -687.333    -635.246
  H     -737.136    -680.106    -643.229
  H     -738.774    -680.225    -643.823
  H     -737.751    -681.641    -643.794

 3  4  5  6  7  8  9  10  11  12  13  24  28  29  30  31  32 0
 6-311+G(2d,p)
 ****
 33  34 0
 6-311+G(2d,p)
 ****
 1  2  14  15  16  17  18  19  20  21  22  23  25  26  27 0
 3-21G
 ****
 35  36  37  38  39  40  41  42  43  44  45 0
 3-21G
 ****


