%nproc=1
%NoSave
%Mem=1900MB
#P OB98/GEN NMR

erre ene a

0 1
  C      135.341     304.404     -59.830
  O      134.426     304.509     -58.730
  P      132.850     304.719     -58.924
  C      132.090     302.763     -57.421
  O      132.098     303.317     -58.736
  C      130.664     302.562     -56.901
  O      130.036     303.829     -56.637
  C      129.730     301.843     -57.865
  O      129.995     300.446     -57.891
  C      128.367     302.219     -57.290
  O      128.017     301.373     -56.186
  C      128.616     303.667     -56.814
  N      128.076     304.658     -57.734
  C      126.806     305.165     -57.431
  O      126.175     304.730     -56.472
  N      126.273     306.133     -58.252
  C      126.916     306.505     -59.313
  N      126.344     307.473     -60.077
  C      128.216     305.934     -59.717
  C      128.729     305.026     -58.885
  O      132.487     305.440     -60.184
  O      132.382     305.568     -57.649
  H      128.004     300.459     -56.531
  H      131.628     306.132     -57.900
  H      128.706     306.254     -60.621
  H      129.687     304.563     -59.098
  H      128.169     303.823     -55.825
  H      127.563     302.138     -58.026
  H      129.832     302.266     -58.871
  H      130.732     302.014     -55.950
  H      125.456     307.848     -59.774
  H      132.624     303.453     -56.757
  H      126.760     307.836     -60.924
  H      132.628     301.811     -57.438
  P      129.302     299.531     -59.006
  C      131.703     299.259     -59.884
  O      130.336     299.392     -60.224
  O      127.914     299.916     -59.389
  O      129.329     298.065     -58.359
  H      128.551     297.564     -58.675
  H      132.225     298.785     -60.716
  H      131.828     298.649     -58.984
  H      132.130     300.253     -59.714
  H      136.334     304.268     -59.456
  H      135.300     305.299     -60.415
  H      135.072     303.567     -60.439

 3  4  5  6  7  8  9  10  11  12  13  23  27  28  29  30  32 0
 6-311+G(2d,p)
 ****
 34  35 0
 6-311+G(2d,p)
 ****
 1  2  14  15  16  17  18  19  20  21  22  24  25  26 0
 3-21G
 ****
 31  33  36  37  38  39  40  41  42  43  44  45  46 0
 3-21G
 ****


