%nproc=1
%NoSave
%Mem=1900MB
#P OB98/GEN NMR

erre ene a

0 1
  C      378.771    -163.181     -13.952
  O      379.507    -164.132     -13.217
  P      380.318    -165.298     -13.970
  C      379.635    -166.867     -15.893
  O      379.214    -166.209     -14.702
  C      378.441    -167.511     -16.590
  O      377.328    -166.572     -16.705
  C      378.713    -167.946     -18.021
  O      379.638    -168.990     -18.224
  C      377.301    -168.162     -18.544
  O      376.794    -169.438     -18.146
  C      376.532    -167.023     -17.827
  N      376.213    -165.915     -18.737
  C      375.026    -166.048     -19.451
  O      374.270    -167.014     -19.350
  N      374.743    -165.032     -20.321
  C      375.535    -163.948     -20.579
  O      375.240    -163.094     -21.411
  C      376.787    -163.877     -19.806
  C      377.062    -164.850     -18.936
  O      381.280    -166.053     -13.117
  O      381.000    -164.530     -15.205
  H      377.113    -169.612     -17.243
  H      380.374    -164.101     -15.812
  H      373.896    -165.107     -20.867
  H      377.432    -163.020     -19.981
  H      377.980    -164.821     -18.350
  H      375.587    -167.404     -17.408
  H      377.256    -168.123     -19.638
  H      379.128    -167.081     -18.570
  H      378.092    -168.347     -15.972
  H      380.358    -167.646     -15.626
  H      380.147    -166.152     -16.552
  P      380.571    -169.106     -19.516
  C      379.970    -169.545     -21.996
  O      379.783    -169.917     -20.643
  O      382.002    -169.470     -19.269
  O      380.522    -167.609     -20.086
  H      381.362    -167.397     -20.531
  H      379.318    -170.171     -22.621
  H      381.001    -169.705     -22.300
  H      379.688    -168.496     -22.145
  H      378.305    -162.493     -13.278
  H      378.020    -163.679     -14.529
  H      379.429    -162.649     -14.607

 3  4  5  6  7  8  9  10  11  12  13  23  28  29  30  31  32 0
 6-311+G(2d,p)
 ****
 33  34 0
 6-311+G(2d,p)
 ****
 1  2  14  15  16  17  18  19  20  21  22  24  25  26  27 0
 3-21G
 ****
 35  36  37  38  39  40  41  42  43  44  45 0
 3-21G
 ****


