%nproc=1
%NoSave
%Mem=1900MB
#P OB98/GEN NMR

erre ene a

0 1
  C      657.651     370.355    -641.810
  O      658.231     369.571    -642.857
  P      657.660     368.080    -643.069
  C      659.969     366.915    -642.658
  O      658.879     367.165    -643.527
  C      661.309     366.953    -643.429
  O      661.279     365.915    -644.441
  C      661.593     368.247    -644.175
  O      662.996     368.300    -644.483
  C      660.819     368.037    -645.458
  O      661.260     368.911    -646.492
  C      661.035     366.528    -645.732
  N      659.875     365.876    -646.389
  C      659.717     366.022    -647.758
  O      660.486     366.676    -648.469
  N      658.617     365.431    -648.310
  C      657.687     364.677    -647.641
  O      656.664     364.242    -648.167
  C      657.975     364.419    -646.221
  C      659.025     365.036    -645.670
  O      656.747     368.219    -644.379
  O      656.885     367.556    -641.903
  H      660.803     368.629    -647.320
  H      655.801     368.203    -644.129
  H      658.445     365.592    -649.298
  H      657.304     363.780    -645.687
  H      659.243     364.868    -644.615
  H      661.905     366.351    -646.377
  H      659.763     368.233    -645.297
  H      661.296     369.153    -643.657
  H      662.124     366.714    -642.736
  H      659.846     365.961    -642.148
  H      659.993     367.689    -641.879
  P      664.000     368.737    -643.302
  C      665.257     370.332    -644.872
  O      665.359     369.206    -644.008
  O      664.161     367.760    -642.177
  O      663.370     370.127    -642.798
  H      663.707     370.336    -641.900
  H      666.217     370.861    -644.874
  H      664.471     371.017    -644.564
  H      665.060     369.972    -645.888
  H      658.121     371.316    -641.782
  H      657.795     369.860    -640.872
  H      656.604     370.475    -641.993

 3  4  5  6  7  8  9  10  11  12  13  23  28  29  30  31  32 0
 6-311+G(2d,p)
 ****
 33  34 0
 6-311+G(2d,p)
 ****
 1  2  14  15  16  17  18  19  20  21  22  24  25  26  27 0
 3-21G
 ****
 35  36  37  38  39  40  41  42  43  44  45 0
 3-21G
 ****


