%nproc=1
%NoSave
%Mem=1900MB
#P OB98/GEN NMR

erre ene a

0 1
  C     -445.554     225.612       5.655
  O     -444.760     224.454       5.841
  H     -445.393     225.993       4.642
  H     -445.258     226.384       6.375
  H     -446.614     225.374       5.779
  P     -445.027     223.614       7.175
  C     -444.568     223.977       9.735
  O     -444.397     224.445       8.402
  C     -444.499     225.147      10.715
  O     -445.543     226.106      10.440
  C     -444.739     224.764      12.168
  O     -443.647     224.069      12.730
  C     -444.969     226.135      12.789
  O     -443.735     226.782      13.121
  C     -445.694     226.895      11.645
  N     -447.089     227.147      11.968
  C     -447.539     228.447      11.696
  O     -446.774     229.277      11.199
  N     -448.827     228.778      12.031
  C     -449.591     227.904      12.611
  N     -450.850     228.306      12.944
  C     -449.156     226.523      12.915
  C     -447.901     226.213      12.573
  O     -444.022     222.379       7.015
  O     -446.453     223.215       7.393
  H     -443.375     226.305      13.901
  H     -443.115     222.642       6.779
  H     -449.834     225.825      13.388
  H     -447.498     225.227      12.760
  H     -445.206     227.857      11.455
  H     -445.555     226.066      13.711
  H     -445.669     224.183      12.259
  H     -443.526     225.643      10.586
  H     -451.089     229.275      12.767
  H     -443.800     223.234       9.982
  H     -451.500     227.739      13.467
  H     -445.543     223.483       9.794
  P     -443.869     222.830      13.724
  C     -444.556     222.516      16.192
  O     -444.351     223.448      15.132
  O     -442.723     221.880      13.831
  O     -445.219     222.166      13.171
  H     -446.000     222.754      13.177
  H     -444.872     223.039      17.070
  H     -443.641     221.999      16.394
  H     -445.308     221.811      15.906

 6  7  8  9  10  11  12  13  14  15  16  26  30  31  32  33  35 0
 6-311+G(2d,p)
 ****
 37  38 0
 6-311+G(2d,p)
 ****
 1  2  3  4  5  17  18  19  20  21  22  23  24  25 0
 3-21G
 ****
 27  28  29  34  36  39  40  41  42  43  44  45  46 0
 3-21G
 ****


