%nproc=1
%NoSave
%Mem=1900MB
#P OB98/GEN NMR

erre ene a

0 1
  C     -157.078     132.223     297.216
  O     -158.231     131.644     297.812
  P     -158.021     130.318     298.695
  C     -158.772     131.595     300.826
  O     -157.752     130.833     300.188
  C     -159.577     130.722     301.774
  O     -158.700     130.098     302.728
  C     -160.613     131.474     302.606
  O     -161.803     131.717     301.870
  C     -160.858     130.483     303.733
  O     -161.793     129.478     303.304
  C     -159.466     129.867     303.940
  N     -157.795     129.052     308.653
  C     -158.499     128.219     307.807
  N     -158.775     126.979     308.274
  N     -158.898     128.567     306.611
  C     -158.520     129.822     306.263
  C     -157.825     130.741     307.013
  C     -157.432     130.360     308.354
  O     -156.864     131.077     309.173
  N     -157.613     131.896     306.309
  C     -158.145     131.666     305.126
  N     -158.732     130.428     305.060
  O     -156.583     129.791     298.222
  O     -159.073     129.273     298.537
  H     -162.068     128.982     304.097
  H     -156.519     128.830     298.370
  H     -157.499     128.729     309.558
  H     -158.128     132.364     304.299
  H     -159.526     128.778     304.078
  H     -161.284     130.951     304.625
  H     -158.380     126.617     309.129
  H     -160.190     132.399     303.010
  H     -159.259     126.344     307.650
  H     -160.060     129.928     301.188
  H     -159.441     132.006     300.062
  H     -158.304     132.424     301.367
  P     -162.234     133.258     301.696
  C     -162.955     133.187     299.195
  O     -161.981     133.590     300.144
  O     -161.071     134.051     302.447
  O     -163.586     133.582     302.228
  H     -161.400     134.918     302.765
  H     -163.966     133.272     299.595
  H     -162.760     132.150     298.901
  H     -162.870     133.825     298.314
  H     -157.362     133.093     296.661
  H     -156.622     131.513     296.558
  H     -156.382     132.499     297.980

 3  4  5  6  7  8  9  10  11  12  23  26  30  31  33  0
 6-311+G(2d,p)
 ****
 35  36  37  38 0
 6-311+G(2d,p)
 ****
 1  2  13  14  15  16  17  18  19  20  21  22  24  25  27  28  29 0
 3-21G
 ****
 32  34  39  40  41  42  43  44  45  46  47  48  49 0
 3-21G
 ****


