%nproc=1
%NoSave
%Mem=1900MB
#P OB98/GEN NMR

erre ene a

0 1
  C      -50.534     106.394      21.617
  O      -49.659     107.503      21.586
  H      -51.476     106.678      21.141
  H      -50.736     106.109      22.652
  H      -50.106     105.548      21.074
  P      -48.146     107.239      22.051
  C      -48.474     109.013      23.916
  O      -48.053     107.698      23.586
  C      -49.160     109.021      25.279
  O      -50.351     108.204      25.247
  C      -48.301     108.475      26.416
  O      -47.410     109.459      26.923
  C      -49.374     108.128      27.434
  O      -49.835     109.330      28.085
  C      -50.479     107.550      26.541
  N      -52.982     103.161      26.947
  C      -53.391     104.447      27.246
  N      -54.643     104.582      27.734
  N      -52.639     105.506      27.089
  C      -51.408     105.219      26.605
  C      -50.889     103.988      26.267
  C      -51.733     102.828      26.439
  O      -51.429     101.670      26.167
  N      -49.607     104.097      25.799
  C      -49.342     105.386      25.870
  N      -50.400     106.110      26.359
  O      -47.317     108.373      21.277
  O      -47.612     105.879      21.752
  H      -50.529     109.060      28.714
  H      -46.448     108.008      21.022
  H      -53.597     102.380      27.097
  H      -48.406     105.843      25.580
  H      -51.483     107.770      26.923
  H      -49.012     107.460      28.216
  H      -55.255     103.805      27.926
  H      -47.771     107.563      26.118
  H      -54.976     105.518      27.930
  H      -49.474     110.050      25.493
  H      -49.178     109.368      23.156
  H      -47.601     109.673      23.930
  P      -45.836     109.148      26.847
  C      -45.825     108.992      29.439
  O      -45.483     108.371      28.206
  O      -45.173     110.589      27.063
  O      -45.381     108.503      25.583
  H      -44.273     110.602      26.685
  H      -45.530     108.360      30.251
  H      -46.882     109.151      29.477
  H      -45.320     109.932      29.517

 6  7  8  9  10  11  12  13  14  15  26  29  33  34 0
 6-311+G(2d,p)
 ****
 36  38  39  40  41 0
 6-311+G(2d,p)
 ****
 1  2  3  4  5  16  17  18  19  20  21  22  23  24  25 0
 3-21G
 ****
 27  28  30  31  32  35  37  42  43  44  45  46  47 0
 3-21G
 ****
 48  49 0
 3-21G
 ****


