%nproc=1
%NoSave
%Mem=1900MB
#P OB98/GEN NMR

erre ene a

0 1
  C       24.314     109.973      52.568
  O       23.666     110.828      51.640
  P       23.857     110.512      50.077
  C       25.299     112.601      49.528
  O       25.243     111.185      49.629
  C       25.840     113.029      48.163
  O       27.215     112.571      48.037
  C       25.059     112.469      46.963
  O       25.092     113.475      45.944
  C       25.897     111.264      46.574
  O       25.633     110.774      45.270
  C       27.298     111.820      46.805
  N       30.829     109.171      44.228
  C       30.028     110.196      43.862
  N       29.117     110.857      44.606
  C       29.083     110.369      45.857
  C       29.824     109.318      46.370
  C       30.735     108.705      45.495
  N       31.547     107.653      45.870
  N       29.496     109.082      47.689
  C       28.570     109.976      47.969
  N       28.303     110.787      46.900
  O       22.757     111.443      49.385
  O       23.693     109.073      49.699
  H       26.282     110.081      45.037
  H       22.336     110.991      48.629
  H       30.132     110.530      42.833
  H       28.056     110.068      48.915
  H       27.602     112.513      46.011
  H       25.686     110.445      47.271
  H       24.017     112.231      47.196
  H       25.856     114.125      48.126
  H       25.968     112.993      50.300
  H       32.013     107.158      45.123
  H       31.322     107.186      46.740
  H       24.302     113.017      49.704
  P       23.706     114.019      45.346
  C       24.230     112.821      43.133
  O       23.326     112.944      44.215
  O       24.219     115.250      44.461
  O       22.656     114.364      46.344
  H       24.948     114.988      43.870
  H       23.903     111.995      42.497
  H       25.236     112.607      43.503
  H       24.233     113.742      42.544
  H       24.100     110.300      53.564
  H       25.371     110.002      52.402
  H       23.960     108.972      52.438

 3  4  5  6  7  8  9  10  11  12  22  25  29  30  31  32 0
 6-311+G(2d,p)
 ****
 33  36  37 0
 6-311+G(2d,p)
 ****
 1  2  13  14  15  16  17  18  19  20  21  23  24  26 0
 3-21G
 ****
 27  28  34  35  38  39  40  41  42  43  44  45  46  47  48 0
 3-21G
 ****


