%nproc=1
%NoSave
%Mem=1900MB
#P OB98/GEN NMR

erre ene a

0 1
  C      -16.713     273.908    -303.046
  O      -15.630     274.548    -303.692
  H      -16.871     272.928    -303.510
  H      -17.622     274.502    -303.164
  H      -16.501     273.759    -301.982
  P      -15.011     275.876    -303.043
  C      -12.660     275.366    -303.987
  O      -13.745     276.287    -303.943
  C      -11.653     275.769    -305.069
  O      -12.158     275.305    -306.366
  C      -11.421     277.289    -305.182
  O      -10.064     277.487    -305.597
  C      -12.391     277.650    -306.298
  O      -12.143     278.930    -306.811
  C      -12.166     276.457    -307.233
  N      -13.183     276.329    -308.272
  C      -12.774     276.497    -309.593
  O      -11.611     276.722    -309.928
  N      -13.761     276.408    -310.538
  C      -15.086     276.183    -310.294
  O      -15.923     276.090    -311.182
  C      -15.461     276.043    -308.877
  C      -14.509     276.124    -307.944
  O      -14.746     275.818    -301.575
  O      -16.088     277.009    -303.402
  H      -16.677     277.153    -302.636
  H      -12.921     279.260    -307.314
  H      -13.480     276.527    -311.501
  H      -16.509     275.883    -308.652
  H      -14.751     276.026    -306.891
  H      -11.178     276.514    -307.705
  H      -13.420     277.652    -305.920
  H      -11.600     277.820    -304.244
  H      -10.710     275.237    -304.891
  H      -13.068     274.371    -304.200
  H      -12.168     275.347    -303.006
  P       -8.822     277.532    -304.576
  C       -7.087     276.287    -306.023
  O       -7.445     277.515    -305.404
  O       -8.886     276.481    -303.511
  O       -8.861     278.994    -303.921
  H       -8.578     278.939    -302.987
  H       -6.157     276.406    -306.539
  H       -7.848     276.004    -306.720
  H       -6.986     275.527    -305.276

 6  7  8  9  10  11  12  13  14  15  16  27  31  32  33  34  35 0
 6-311+G(2d,p)
 ****
 36  37 0
 6-311+G(2d,p)
 ****
 1  2  3  4  5  17  18  19  20  21  22  23  24  25 0
 3-21G
 ****
 26  28  29  30  38  39  40  41  42  43  44  45 0
 3-21G
 ****


