%nproc=1
%NoSave
%Mem=1900MB
#P OB98/GEN NMR

erre ene a

0 1
  C      188.806     100.851     -72.512
  O      190.095     100.779     -71.906
  P      190.984     102.111     -71.818
  C      192.215     101.750     -74.055
  O      191.332     102.585     -73.313
  C      192.540     102.378     -75.415
  O      191.360     102.560     -76.216
  C      193.166     103.758     -75.299
  O      194.518     103.673     -74.877
  C      192.960     104.290     -76.711
  O      193.984     103.815     -77.596
  C      191.595     103.676     -77.099
  N      190.496     104.626     -77.047
  C      190.514     105.637     -78.017
  O      191.440     105.703     -78.830
  N      189.487     106.551     -78.032
  C      188.532     106.472     -77.155
  N      187.540     107.398     -77.222
  C      188.487     105.433     -76.102
  C      189.493     104.562     -76.102
  O      192.145     102.053     -70.883
  O      189.912     103.214     -71.340
  H      194.814     104.249     -77.309
  H      190.379     103.896     -70.816
  H      187.668     105.406     -75.396
  H      189.539     103.764     -75.364
  H      191.638     103.263     -78.114
  H      192.993     105.391     -76.742
  H      192.594     104.364     -74.591
  H      193.230     101.700     -75.943
  H      187.602     108.111     -77.937
  H      191.752     100.768     -74.198
  H      186.735     107.392     -76.610
  H      193.126     101.590     -73.464
  P      194.859     104.171     -73.393
  C      195.091     106.585     -74.336
  O      194.559     105.742     -73.321
  O      196.468     104.104     -73.357
  O      194.261     103.355     -72.295
  H      196.762     103.864     -72.461
  H      194.557     107.530     -74.328
  H      194.998     106.133     -75.326
  H      196.150     106.778     -74.122
  H      188.347      99.885     -72.491
  H      188.906     101.176     -73.527
  H      188.197     101.547     -71.973

 3  4  5  6  7  8  9  10  11  12  13  23  27  28  29  30  32 0
 6-311+G(2d,p)
 ****
 34  35 0
 6-311+G(2d,p)
 ****
 1  2  14  15  16  17  18  19  20  21  22  24  25  26 0
 3-21G
 ****
 31  33  36  37  38  39  40  41  42  43  44  45  46 0
 3-21G
 ****


