%nproc=1
%NoSave
%Mem=1900MB
#P OB98/GEN NMR

erre ene a

0 1
  C       -5.366      12.395      14.212
  O       -5.479      13.289      15.304
  P       -6.793      13.272      16.219
  C       -7.818      11.519      17.846
  O       -6.985      11.768      16.734
  C       -8.485      10.142      17.742
  O       -9.601      10.256      16.826
  C       -7.595       9.040      17.179
  O       -8.166       7.775      17.520
  C       -7.721       9.269      15.689
  O       -7.358       8.117      14.933
  C       -9.197       9.720      15.544
  N       -9.350      10.740      14.491
  C       -9.003      10.365      13.197
  O       -8.659       9.221      12.900
  N       -8.984      11.369      12.268
  C       -9.226      12.686      12.526
  O       -8.909      13.599      11.773
  C       -9.814      12.977      13.843
  C       -9.824      12.009      14.762
  O       -7.970      13.464      15.153
  O       -6.831      14.315      17.282
  H       -8.013       7.414      15.153
  H       -8.232      14.402      15.106
  H       -8.594      11.125      11.365
  H      -10.160      13.982      14.035
  H      -10.204      12.209      15.760
  H       -9.850       8.876      15.294
  H       -7.049      10.084      15.394
  H       -6.554       9.088      17.512
  H       -8.881       9.855      18.723
  H       -8.572      12.308      17.915
  H       -7.237      11.564      18.774
  P       -7.223       6.481      17.441
  C       -4.981       5.858      18.527
  O       -5.817       6.908      18.082
  O       -7.146       5.808      16.112
  O       -7.842       5.515      18.562
  H       -7.548       4.599      18.405
  H       -3.939       6.178      18.445
  H       -5.122       4.953      17.931
  H       -5.204       5.641      19.575
  H       -4.428      12.549      13.720
  H       -6.164      12.572      13.522
  H       -5.420      11.388      14.569

 3  4  5  6  7  8  9  10  11  12  13  23  28  29  30  31  32 0
 6-311+G(2d,p)
 ****
 33  34 0
 6-311+G(2d,p)
 ****
 1  2  14  15  16  17  18  19  20  21  22  24  25  26  27 0
 3-21G
 ****
 35  36  37  38  39  40  41  42  43  44  45 0
 3-21G
 ****


