%nproc=1
%NoSave
%Mem=1900MB
#P OB98/GEN NMR

erre ene a

0 1
  C      -15.272    -740.849    -289.337
  O      -15.011    -740.090    -288.150
  P      -15.653    -738.623    -288.032
  C      -15.526    -736.684    -286.301
  O      -14.905    -737.846    -286.844
  C      -14.789    -736.232    -285.034
  O      -14.901    -737.213    -283.966
  C      -13.285    -736.025    -285.245
  O      -13.014    -734.740    -285.801
  C      -12.764    -736.086    -283.816
  O      -13.004    -734.827    -283.155
  C      -13.660    -737.183    -283.199
  N      -12.252    -741.141    -280.379
  C      -12.876    -739.960    -280.017
  N      -13.169    -739.816    -278.698
  N      -13.171    -739.008    -280.849
  C      -12.835    -739.292    -282.139
  C      -12.216    -740.423    -282.620
  C      -11.870    -741.467    -281.683
  O      -11.312    -742.519    -281.941
  N      -12.030    -740.345    -283.977
  C      -12.554    -739.184    -284.311
  N      -13.043    -738.493    -283.234
  O      -17.106    -738.919    -287.417
  O      -15.738    -737.890    -289.332
  H      -12.349    -734.766    -282.428
  H      -17.731    -738.217    -287.692
  H      -12.034    -741.835    -279.688
  H      -12.599    -738.789    -285.330
  H      -13.936    -736.970    -282.164
  H      -11.697    -736.279    -283.771
  H      -13.011    -740.535    -278.005
  H      -12.850    -736.830    -285.844
  H      -13.656    -738.974    -278.423
  H      -15.226    -735.291    -284.688
  H      -16.571    -736.891    -286.060
  H      -15.539    -735.898    -287.060
  P      -12.163    -734.671    -287.161
  C      -12.607    -733.092    -289.170
  O      -12.410    -733.214    -287.774
  O      -12.975    -735.653    -288.138
  O      -10.737    -735.099    -287.028
  H      -12.379    -736.091    -288.763
  H      -12.924    -732.057    -289.382
  H      -13.391    -733.766    -289.515
  H      -11.671    -733.283    -289.703
  H      -14.781    -741.797    -289.269
  H      -14.903    -740.317    -290.189
  H      -16.326    -741.000    -289.439

 3  4  5  6  7  8  9  10  11  12  23  26  30  31 0
 6-311+G(2d,p)
 ****
 33  35  36  37  38 0
 6-311+G(2d,p)
 ****
 1  2  13  14  15  16  17  18  19  20  21  22  24  25 0
 3-21G
 ****
 27  28  29  32  34  39  40  41  42  43  44  45  46  47  48  49 0
 3-21G
 ****


