%nproc=1
%NoSave
%Mem=1900MB
#P OB98/GEN NMR

erre ene a

0 1
  C      949.456    1533.317    -892.730
  O      949.551    1532.054    -893.410
  P      949.275    1530.772    -892.480
  C      947.622    1529.489    -894.050
  O      947.791    1530.230    -892.840
  C      946.290    1529.814    -894.720
  O      945.162    1529.571    -893.800
  C      946.185    1531.266    -895.210
  O      945.409    1531.242    -896.420
  C      945.406    1531.898    -894.080
  O      944.826    1533.173    -894.450
  C      944.396    1530.790    -893.790
  N      940.556    1533.199    -891.430
  C      940.994    1533.234    -892.680
  N      942.036    1532.575    -893.250
  C      942.638    1531.786    -892.330
  C      942.290    1531.633    -891.000
  C      941.191    1532.394    -890.510
  N      940.751    1532.357    -889.220
  N      943.168    1530.752    -890.360
  C      944.057    1530.443    -891.270
  N      943.721    1530.970    -892.500
  O      949.098    1531.401    -891.020
  O      950.333    1529.766    -892.540
  H      944.303    1533.078    -895.230
  H      949.915    1531.317    -890.520
  H      940.449    1533.869    -893.370
  H      944.936    1529.842    -891.150
  H      943.604    1530.721    -894.550
  H      946.050    1532.128    -893.260
  H      947.166    1531.757    -895.400
  H      946.172    1529.113    -895.560
  H      947.673    1528.411    -893.820
  H      939.953    1532.928    -888.970
  H      941.220    1531.787    -888.540
  H      948.463    1529.686    -894.700
  P      946.116    1531.708    -897.770
  C      945.206    1529.884    -899.300
  O      946.340    1530.374    -898.640
  O      947.627    1532.041    -897.270
  O      945.458    1532.891    -898.470
  H      947.945    1531.306    -896.750
  H      945.516    1529.017    -899.920
  H      944.807    1530.660    -900.000
  H      944.451    1529.560    -898.580
  H      949.653    1534.110    -893.421
  H      950.172    1533.349    -891.936
  H      948.471    1533.432    -892.327

 3  4  5  6  7  8  9  10  11  12  22  25  29  30  31  32 0
 6-311+G(2d,p)
 ****
 33  36  37 0
 6-311+G(2d,p)
 ****
 1  2  13  14  15  16  17  18  19  20  21  23  24  26 0
 3-21G
 ****
 27  28  34  35  38  39  40  41  42  43  44  45  46  47  48 0
 3-21G
 ****


