%nproc=1
%NoSave
%Mem=1900MB
#P OB98/GEN NMR

erre ene a

0 1
  C     -393.769    -971.119     932.499
  O     -394.223    -972.198     933.284
  H     -392.735    -971.316     932.199
  H     -393.793    -970.189     933.072
  H     -394.379    -971.018     931.596
  P     -395.725    -972.146     933.859
  C     -397.064    -972.687     931.704
  O     -396.534    -973.183     932.927
  C     -397.461    -973.844     930.796
  O     -396.302    -974.591     930.351
  C     -398.351    -974.897     931.443
  O     -399.693    -974.473     931.633
  C     -398.239    -976.014     930.425
  O     -399.043    -975.700     929.270
  C     -396.727    -975.955     930.094
  N     -395.940    -976.903     930.881
  C     -396.124    -978.258     930.593
  O     -396.919    -978.619     929.734
  N     -395.420    -979.193     931.332
  C     -394.630    -978.800     932.280
  N     -393.960    -979.761     932.975
  C     -394.417    -977.379     932.625
  C     -395.091    -976.494     931.894
  O     -396.333    -970.786     933.986
  O     -395.655    -972.944     935.243
  H     -399.974    -975.812     929.533
  H     -396.559    -972.938     935.641
  H     -393.770    -977.104     933.444
  H     -395.004    -975.430     932.089
  H     -396.558    -976.154     929.030
  H     -398.577    -976.980     930.800
  H     -397.918    -975.248     932.395
  H     -397.926    -973.424     929.902
  H     -394.127    -980.724     932.718
  H     -396.303    -972.059     931.227
  H     -393.383    -979.551     933.783
  H     -397.955    -972.083     931.902
  P     -400.400    -974.880     933.018
  C     -401.097    -972.377     933.335
  O     -401.484    -973.744     933.324
  O     -399.247    -974.619     934.104
  O     -400.931    -976.276     933.074
  H     -398.800    -975.451     934.340
  H     -401.948    -971.767     933.556
  H     -400.706    -972.109     932.376
  H     -400.346    -972.225     934.082

 6  7  8  9  10  11  12  13  14  15  16  26  30  31  32  33  35 0
 6-311+G(2d,p)
 ****
 37  38 0
 6-311+G(2d,p)
 ****
 1  2  3  4  5  17  18  19  20  21  22  23  24  25 0
 3-21G
 ****
 27  28  29  34  36  39  40  41  42  43  44  45  46 0
 3-21G
 ****


