%nproc=1
%NoSave
%Mem=1900MB
#P OB98/GEN NMR

erre ene a

0 1
  C      856.799    -894.810     -81.871
  O      856.278    -895.190     -83.142
  H      856.066    -894.180     -81.367
  H      857.720    -894.240     -81.998
  H      856.988    -895.690     -81.263
  P      857.069    -896.290     -83.955
  C      858.718    -894.570     -85.047
  O      858.558    -895.710     -84.193
  C      860.195    -894.360     -85.357
  O      860.792    -895.630     -85.688
  C      860.452    -893.400     -86.553
  O      861.633    -892.630     -86.263
  C      860.718    -894.340     -87.678
  O      861.482    -893.770     -88.751
  C      861.469    -895.490     -86.968
  N      861.480    -896.710     -87.720
  C      862.158    -896.730     -88.933
  O      862.843    -895.810     -89.368
  N      862.065    -897.890     -89.656
  C      861.358    -899.010     -89.322
  O      861.295    -900.000     -90.017
  C      860.638    -898.940     -88.035
  C      860.731    -897.810     -87.298
  O      856.416    -896.210     -85.415
  O      857.047    -897.680     -83.390
  H      855.653    -896.820     -85.491
  H      861.461    -894.380     -89.522
  H      862.557    -897.930     -90.538
  H      860.049    -899.790     -87.732
  H      860.195    -897.730     -86.366
  H      862.516    -895.170     -86.750
  H      859.787    -894.720     -88.093
  H      859.625    -892.740     -86.766
  H      860.702    -894.010     -84.461
  H      858.315    -893.690     -84.532
  H      858.155    -894.730     -85.970
  P      861.440    -891.140     -85.732
  C      862.514    -890.250     -87.948
  O      861.446    -890.200     -87.032
  O      862.845    -890.870     -85.046
  O      860.244    -891.000     -84.840
  H      863.595    -891.280     -85.519
  H      862.336    -889.555     -88.742
  H      862.593    -891.238     -88.351
  H      863.425    -889.995     -87.448

 6  7  8  9  10  11  12  13  14  15  16  27  31  32  33  34  35 0
 6-311+G(2d,p)
 ****
 36  37 0
 6-311+G(2d,p)
 ****
 1  2  3  4  5  17  18  19  20  21  22  23  24  25 0
 3-21G
 ****
 26  28  29  30  38  39  40  41  42  43  44  45 0
 3-21G
 ****


