%nproc=1
%NoSave
%Mem=1900MB
#P OB98/GEN NMR

erre ene a

0 1
  C       62.593      26.269      65.963
  O       62.446      25.933      64.601
  H       61.758      26.909      66.256
  H       63.526      26.820      66.110
  H       62.588      25.378      66.594
  P       63.343      24.753      63.996
  C       65.190      26.517      63.622
  O       64.456      25.437      63.065
  C       66.617      26.550      63.062
  O       67.309      25.341      63.466
  C       66.619      26.575      61.531
  O       67.776      27.219      61.005
  C       66.670      25.098      61.172
  O       67.186      24.857      59.864
  C       67.546      24.545      62.293
  N       68.608      19.689      61.169
  C       68.951      20.838      60.485
  N       69.676      20.670      59.354
  N       68.597      22.038      60.862
  C       67.816      22.049      61.968
  C       67.390      20.977      62.718
  C       67.818      19.655      62.310
  O       67.523      18.603      62.866
  N       66.601      21.380      63.766
  C       66.545      22.692      63.648
  N       67.287      23.148      62.587
  O       62.377      24.058      62.924
  O       63.865      23.762      64.991
  H       67.299      23.893      59.768
  H       62.667      23.145      62.748
  H       68.931      18.792      60.852
  H       65.999      23.353      64.309
  H       68.608      24.636      62.035
  H       65.650      24.706      61.194
  H       69.796      19.762      58.931
  H       65.731      27.047      61.116
  H       69.666      21.449      58.691
  H       67.171      27.391      63.494
  H       65.205      26.368      64.704
  H       64.679      27.462      63.432
  P       67.764      28.814      60.858
  C       66.618      28.684      58.476
  O       67.615      29.215      59.321
  O       69.260      29.239      61.221
  O       66.759      29.506      61.725
  H       69.273      29.777      62.035
  H       66.721      29.102      57.496
  H       65.652      28.927      58.868
  H       66.725      27.621      58.423

 6  7  8  9  10  11  12  13  14  15  26  29  33  34 0
 6-311+G(2d,p)
 ****
 36  38  39  40  41 0
 6-311+G(2d,p)
 ****
 1  2  3  4  5  16  17  18  19  20  21  22  23  24  25 0
 3-21G
 ****
 27  28  30  31  32  35  37  42  43  44  45  46  47 0
 3-21G
 ****
 48  49 0
 3-21G
 ****


