%nproc=1
%NoSave
%Mem=1900MB
#P OB98/GEN NMR

erre ene a

0 1
  C     -164.389      49.979     -40.130
  O     -163.271      50.706     -39.661
  H     -164.244      48.922     -39.894
  H     -164.474      50.089     -41.213
  H     -165.303      50.329     -39.645
  P     -163.321      52.301     -39.827
  C     -163.394      52.920     -37.310
  O     -162.635      52.915     -38.510
  C     -162.477      52.895     -36.089
  O     -161.974      51.539     -35.905
  C     -161.258      53.825     -36.196
  O     -160.978      54.340     -34.889
  C     -160.137      52.872     -36.578
  O     -158.846      53.389     -36.264
  C     -160.543      51.641     -35.770
  N     -158.560      47.276     -34.246
  C     -159.216      48.261     -33.533
  N     -159.368      48.054     -32.208
  N     -159.682      49.355     -34.073
  C     -159.490      49.416     -35.413
  C     -158.854      48.513     -36.231
  C     -158.318      47.317     -35.616
  O     -157.712      46.419     -36.192
  N     -158.840      48.952     -37.532
  C     -159.465      50.115     -37.498
  N     -159.878      50.438     -36.234
  O     -164.876      52.624     -39.627
  O     -162.802      52.826     -41.122
  H     -158.179      52.756     -36.600
  H     -165.328      52.653     -40.491
  H     -158.209      46.458     -33.779
  H     -159.641      50.757     -38.349
  H     -160.304      51.744     -34.705
  H     -160.169      52.663     -37.655
  H     -159.076      47.215     -31.732
  H     -161.380      54.652     -36.903
  H     -159.883      48.745     -31.676
  H     -163.072      53.134     -35.200
  H     -164.037      52.034     -37.293
  H     -164.023      53.816     -37.286
  P     -159.949      55.561     -34.766
  C     -161.727      57.167     -33.756
  O     -160.466      56.534     -33.603
  O     -160.243      56.410     -36.092
  O     -158.516      55.151     -34.681
  H     -159.442      56.896     -36.359
  H     -161.925      57.778     -32.901
  H     -162.491      56.423     -33.847
  H     -161.716      57.777     -34.635

 6  7  8  9  10  11  12  13  14  15  26  29  33  34 0
 6-311+G(2d,p)
 ****
 36  38  39  40  41 0
 6-311+G(2d,p)
 ****
 1  2  3  4  5  16  17  18  19  20  21  22  23  24  25 0
 3-21G
 ****
 27  28  30  31  32  35  37  42  43  44  45  46  47 0
 3-21G
 ****
 48  49 0
 3-21G
 ****


