%nproc=1
%NoSave
%Mem=1900MB
#P OB98/GEN NMR

erre ene a

0 1
  C      556.064    -347.648    -548.840
  O      556.459    -347.786    -550.188
  H      555.038    -347.263    -548.816
  H      556.714    -346.937    -548.322
  H      556.085    -348.615    -548.325
  P      557.871    -348.477    -550.510
  C      558.704    -346.386    -551.776
  O      558.936    -347.297    -550.707
  C      559.895    -345.439    -551.914
  O      559.906    -344.490    -550.826
  C      561.245    -346.137    -551.865
  O      561.532    -346.787    -553.091
  C      562.161    -344.970    -551.538
  O      562.468    -344.206    -552.720
  C      561.287    -344.148    -550.568
  N      561.630    -344.372    -549.159
  C      562.737    -343.689    -548.678
  O      563.431    -342.948    -549.378
  N      563.044    -343.907    -547.357
  C      562.433    -344.804    -546.531
  O      562.806    -345.027    -545.379
  C      561.283    -345.521    -547.101
  C      560.937    -345.275    -548.371
  O      557.856    -349.500    -551.599
  O      558.302    -349.121    -549.109
  H      562.953    -343.416    -552.419
  H      558.168    -350.087    -549.138
  H      563.851    -343.430    -546.992
  H      560.765    -346.230    -546.475
  H      560.099    -345.792    -548.812
  H      561.388    -343.075    -550.774
  H      563.109    -345.285    -551.113
  H      561.273    -346.847    -551.033
  H      559.778    -344.878    -552.852
  H      557.800    -345.808    -551.555
  H      558.549    -346.954    -552.700
  P      562.600    -347.984    -553.131
  C      564.213    -346.975    -554.863
  O      564.025    -347.350    -553.500
  O      562.203    -349.166    -553.942
  O      562.773    -348.385    -551.590
  H      562.513    -349.315    -551.468
  H      565.194    -346.567    -554.989
  H      563.484    -346.241    -555.135
  H      564.102    -347.836    -555.488

 6  7  8  9  10  11  12  13  14  15  16  26  31  32  33  34  35 0
 6-311+G(2d,p)
 ****
 36  37 0
 6-311+G(2d,p)
 ****
 1  2  3  4  5  17  18  19  20  21  22  23  24  25 0
 3-21G
 ****
 27  28  29  30  38  39  40  41  42  43  44  45 0
 3-21G
 ****


