%nproc=1
%NoSave
%Mem=1900MB
#P OB98/GEN NMR

erre ene a

0 1
  C     -165.886     188.844    -162.108
  O     -164.991     189.094    -163.198
  P     -165.504     189.607    -164.628
  C     -164.572     191.993    -164.413
  O     -165.740     191.192    -164.546
  C     -164.908     193.432    -163.975
  O     -165.475     193.429    -162.630
  C     -163.714     194.382    -163.924
  O     -163.401     194.842    -165.222
  C     -164.245     195.462    -162.973
  O     -165.090     196.386    -163.668
  C     -165.049     194.632    -161.960
  N     -162.508     196.602    -157.989
  C     -163.161     197.182    -159.019
  N     -163.812     196.582    -160.048
  C     -163.762     195.241    -159.920
  C     -163.132     194.514    -158.930
  C     -162.473     195.245    -157.924
  N     -161.799     194.649    -156.884
  N     -163.284     193.152    -159.160
  C     -164.008     193.081    -160.250
  N     -164.323     194.317    -160.753
  O     -166.671     188.843    -165.174
  O     -164.233     189.466    -165.592
  H     -165.444     197.000    -163.009
  H     -164.531     189.331    -166.509
  H     -163.160     198.266    -159.018
  H     -164.323     192.150    -160.722
  H     -165.969     195.163    -161.661
  H     -163.440     196.040    -162.510
  H     -162.857     193.877    -163.462
  H     -165.683     193.818    -164.641
  H     -164.062     192.036    -165.389
  H     -161.325     195.237    -156.223
  H     -161.723     193.637    -156.852
  H     -163.906     191.531    -163.683
  P     -162.420     193.975    -166.163
  C     -164.332     193.804    -167.868
  O     -163.367     193.099    -167.135
  O     -161.359     193.195    -165.450
  O     -161.794     195.041    -167.156
  H     -160.900     194.746    -167.425
  H     -165.189     194.036    -167.239
  H     -164.658     193.195    -168.711
  H     -163.919     194.749    -168.256
  H     -165.328     188.511    -161.258
  H     -166.590     188.089    -162.390
  H     -166.408     189.745    -161.862

 3  4  5  6  7  8  9  10  11  12  22  25  29  30  31  32 0
 6-311+G(2d,p)
 ****
 33  36  37 0
 6-311+G(2d,p)
 ****
 1  2  13  14  15  16  17  18  19  20  21  23  24  26 0
 3-21G
 ****
 27  28  34  35  38  39  40  41  42  43  44  45  46  47  48 0
 3-21G
 ****


