%nproc=1
%NoSave
%Mem=1900MB
#P OB98/GEN NMR

erre ene a

0 1
  C     -435.384    -617.256     741.779
  O     -436.537    -617.605     742.517
  H     -435.681    -616.617     740.945
  H     -434.901    -618.153     741.381
  H     -434.684    -616.708     742.413
  P     -436.324    -618.643     743.729
  C     -436.895    -616.878     745.562
  O     -435.904    -617.700     744.959
  C     -437.038    -617.230     747.038
  O     -435.832    -616.885     747.759
  C     -438.165    -616.496     747.762
  O     -439.450    -617.032     747.493
  C     -437.745    -616.729     749.201
  O     -438.039    -618.088     749.576
  C     -436.225    -616.490     749.108
  N     -435.844    -615.096     749.364
  C     -435.381    -614.799     750.648
  O     -435.309    -615.680     751.508
  N     -435.045    -613.499     750.946
  C     -435.141    -612.581     750.037
  N     -434.796    -611.311     750.393
  C     -435.609    -612.850     748.665
  C     -435.940    -614.116     748.404
  O     -434.945    -619.367     743.358
  O     -437.457    -619.574     744.006
  H     -438.906    -618.306     749.185
  H     -434.645    -619.927     744.117
  H     -435.685    -612.050     747.941
  H     -436.294    -614.391     747.413
  H     -435.680    -617.135     749.809
  H     -438.266    -616.083     749.912
  H     -438.136    -615.417     747.554
  H     -437.164    -618.318     747.114
  H     -434.537    -611.151     751.353
  H     -437.847    -617.046     745.041
  H     -434.978    -610.511     749.803
  H     -436.623    -615.822     745.466
  P     -440.720    -616.131     747.884
  C     -441.247    -615.622     745.384
  O     -440.955    -615.101     746.678
  O     -440.158    -615.201     749.060
  O     -441.925    -616.904     748.317
  H     -440.851    -615.016     749.721
  H     -441.376    -614.814     744.695
  H     -442.146    -616.201     745.427
  H     -440.438    -616.243     745.059

 6  7  8  9  10  11  12  13  14  15  16  26  30  31  32  33  35 0
 6-311+G(2d,p)
 ****
 37  38 0
 6-311+G(2d,p)
 ****
 1  2  3  4  5  17  18  19  20  21  22  23  24  25 0
 3-21G
 ****
 27  28  29  34  36  39  40  41  42  43  44  45  46 0
 3-21G
 ****


