%nproc=1
%NoSave
%Mem=1900MB
#P OB98/GEN NMR

erre ene a

0 1
  C     -598.543     -66.307     175.921
  O     -598.336     -64.937     175.637
  H     -598.241     -66.924     175.061
  H     -597.934     -66.592     176.784
  H     -599.603     -66.489     176.149
  P     -599.064     -64.361     174.331
  C     -598.906     -64.818     171.782
  O     -598.437     -65.158     173.078
  C     -597.753     -64.741     170.803
  O     -597.144     -66.049     170.624
  C     -598.115     -64.285     169.398
  O     -598.278     -62.876     169.325
  C     -596.906     -64.746     168.619
  O     -595.830     -63.803     168.778
  C     -596.539     -66.070     169.308
  N     -595.564     -69.408     165.519
  C     -594.889     -68.322     165.974
  N     -595.215     -67.474     166.971
  C     -596.360     -67.848     167.551
  C     -597.185     -68.914     167.200
  C     -596.735     -69.720     166.126
  N     -597.457     -70.806     165.666
  N     -598.283     -68.988     168.018
  C     -598.144     -67.981     168.857
  N     -597.009     -67.244     168.602
  O     -598.449     -62.887     174.183
  O     -600.554     -64.331     174.390
  H     -596.190     -62.917     168.559
  H     -599.136     -62.292     173.835
  H     -593.963     -68.111     165.457
  H     -598.840     -67.739     169.654
  H     -595.459     -66.164     169.461
  H     -597.083     -64.850     167.546
  H     -599.006     -64.818     169.037
  H     -596.974     -64.077     171.231
  H     -599.411     -63.845     171.811
  H     -596.994     -71.447     165.037
  H     -598.327     -71.042     166.132
  H     -599.629     -65.587     171.457
  P     -598.867     -62.262     167.953
  C     -597.939     -62.067     165.537
  O     -597.643     -62.319     166.905
  O     -599.003     -60.707     168.282
  O     -600.167     -62.862     167.491
  H     -599.688     -60.307     167.711
  H     -597.041     -62.137     164.959
  H     -598.352     -61.085     165.437
  H     -598.646     -62.789     165.186

 6  7  8  9  10  11  12  13  14  15  25  28  32  33  34  35 0
 6-311+G(2d,p)
 ****
 36  39  40 0
 6-311+G(2d,p)
 ****
 1  2  3  4  5  16  17  18  19  20  21  22  23  24 0
 3-21G
 ****
 26  27  29  30  31  37  38  41  42  43  44  45  46  47  48 0
 3-21G
 ****


