%nproc=1
%NoSave
%Mem=1900MB
#P OB98/GEN NMR

erre ene a

0 1
  C      203.280    -353.899    -220.777
  O      204.157    -353.350    -221.758
  P      205.231    -354.182    -222.593
  C      205.521    -352.571    -224.654
  O      206.080    -353.164    -223.487
  C      204.906    -351.200    -224.337
  O      205.912    -350.380    -223.667
  C      204.475    -350.444    -225.599
  O      203.221    -349.784    -225.467
  C      205.685    -349.579    -225.906
  O      205.392    -348.476    -226.749
  C      206.195    -349.240    -224.508
  N      209.760    -345.586    -224.619
  C      208.399    -345.487    -224.832
  N      207.920    -344.261    -225.128
  N      207.581    -346.504    -224.775
  C      208.199    -347.685    -224.546
  C      209.540    -347.912    -224.336
  C      210.431    -346.771    -224.350
  O      211.640    -346.801    -224.149
  N      209.793    -349.245    -224.128
  C      208.615    -349.823    -224.231
  N      207.610    -348.914    -224.478
  O      204.723    -355.409    -223.272
  O      206.300    -354.651    -221.480
  H      204.649    -347.985    -226.350
  H      206.644    -355.517    -221.780
  H      210.339    -344.765    -224.653
  H      208.426    -350.884    -224.123
  H      205.681    -348.374    -224.081
  H      206.413    -350.204    -226.437
  H      208.506    -343.463    -225.308
  H      204.309    -351.139    -226.431
  H      206.968    -344.235    -225.499
  H      204.068    -351.341    -223.646
  H      204.741    -353.260    -224.996
  H      206.268    -352.497    -225.446
  P      201.814    -350.172    -226.116
  C      200.428    -350.361    -223.966
  O      200.646    -349.634    -225.162
  O      201.707    -351.761    -225.952
  O      201.663    -349.790    -227.552
  H      201.652    -352.179    -226.834
  H      199.460    -350.068    -223.550
  H      201.212    -350.124    -223.243
  H      200.419    -351.435    -224.161
  H      202.666    -353.122    -220.373
  H      203.856    -354.343    -219.992
  H      202.660    -354.644    -221.230

 3  4  5  6  7  8  9  10  11  12  23  26  30  31 0
 6-311+G(2d,p)
 ****
 33  35  36  37  38 0
 6-311+G(2d,p)
 ****
 1  2  13  14  15  16  17  18  19  20  21  22  24  25 0
 3-21G
 ****
 27  28  29  32  34  39  40  41  42  43  44  45  46  47  48  49 0
 3-21G
 ****


