%nproc=1
%NoSave
%Mem=1900MB
#P OB98/GEN NMR

erre ene a

0 1
  C      304.183    -896.611     120.384
  O      304.130    -897.241     121.652
  H      303.898    -897.351     119.640
  H      305.192    -896.271     120.179
  H      303.471    -895.791     120.344
  P      304.561    -896.391     122.950
  C      306.940    -897.011     123.731
  O      306.144    -896.201     122.872
  C      308.191    -896.271     124.173
  O      307.755    -895.021     124.815
  C      309.044    -897.051     125.207
  O      310.412    -897.171     124.820
  C      308.712    -896.371     126.528
  O      309.728    -896.481     127.503
  C      308.391    -894.931     126.105
  N      307.532    -894.221     127.040
  C      308.147    -893.491     128.055
  O      309.366    -893.371     128.202
  N      307.301    -892.841     128.919
  C      305.930    -892.861     128.887
  O      305.233    -892.271     129.698
  C      305.344    -893.681     127.820
  C      306.152    -894.311     126.963
  O      304.054    -896.911     124.251
  O      304.004    -894.921     122.637
  H      309.403    -896.041     128.306
  H      303.215    -894.751     123.187
  H      307.743    -892.291     129.638
  H      304.266    -893.751     127.769
  H      305.735    -894.921     126.158
  H      309.306    -894.341     125.990
  H      307.809    -896.831     126.945
  H      308.700    -898.091     125.244
  H      308.782    -895.991     123.295
  H      307.222    -897.921     123.174
  H      306.352    -897.311     124.609
  P      311.109    -898.511     124.298
  C      312.545    -899.281     126.361
  O      311.385    -899.451     125.568
  O      312.230    -898.311     123.337
  O      309.920    -899.281     123.524
  H      310.349    -899.771     122.806
  H      312.544    -900.000     127.153
  H      312.553    -898.294     126.775
  H      313.415    -899.420     125.754

 6  7  8  9  10  11  12  13  14  15  16  26  31  32  33  34  35 0
 6-311+G(2d,p)
 ****
 36  37 0
 6-311+G(2d,p)
 ****
 1  2  3  4  5  17  18  19  20  21  22  23  24  25 0
 3-21G
 ****
 27  28  29  30  38  39  40  41  42  43  44  45 0
 3-21G
 ****


