%nproc=1
%NoSave
%Mem=1900MB
#P OB98/GEN NMR

erre ene a

0 1
  C      -91.891    -154.597    -235.405
  O      -92.661    -153.466    -235.032
  P      -94.201    -153.443    -235.468
  C      -94.176    -150.838    -235.715
  O      -94.433    -152.097    -236.324
  C      -94.544    -149.702    -236.685
  O      -93.600    -149.656    -237.791
  C      -95.913    -149.883    -237.333
  O      -96.954    -149.495    -236.438
  C      -95.799    -148.976    -238.559
  O      -96.069    -147.616    -238.212
  C      -94.315    -149.173    -238.947
  N      -94.143    -150.048    -240.102
  C      -94.232    -149.426    -241.357
  O      -94.471    -148.234    -241.498
  N      -94.079    -150.248    -242.440
  C      -93.918    -151.607    -242.405
  O      -93.841    -152.312    -243.409
  C      -93.867    -152.209    -241.053
  C      -93.980    -151.418    -239.982
  O      -94.984    -153.163    -234.094
  O      -94.673    -154.684    -236.139
  H      -95.670    -147.464    -237.329
  H      -95.840    -153.640    -234.098
  H      -94.119    -149.823    -243.345
  H      -93.715    -153.288    -240.995
  H      -93.953    -151.846    -238.988
  H      -93.868    -148.193    -239.200
  H      -96.504    -149.274    -239.337
  H      -96.040    -150.921    -237.651
  H      -94.483    -148.742    -236.145
  H      -93.100    -150.780    -235.466
  H      -94.762    -150.753    -234.790
  P      -98.394    -150.185    -236.665
  C      -99.664    -148.379    -235.240
  O      -99.447    -148.984    -236.519
  O      -98.525    -151.023    -235.301
  O      -98.468    -150.989    -237.905
  H      -98.095    -150.587    -234.541
  H      -98.749    -148.321    -234.658
  H     -100.420    -148.943    -234.700
  H     -100.036    -147.356    -235.415
  H      -90.888    -154.478    -235.051
  H      -91.884    -154.688    -236.471
  H      -92.320    -155.478    -234.975

 3  4  5  6  7  8  9  10  11  12  13  23  28  29  30  31  32 0
 6-311+G(2d,p)
 ****
 33  34 0
 6-311+G(2d,p)
 ****
 1  2  14  15  16  17  18  19  20  21  22  24  25  26 0
 3-21G
 ****
 27  35  36  37  38  39  40  41  42  43  44  45 0
 3-21G
 ****


