%nproc=1
%NoSave
%Mem=1900MB
#P OB98/GEN NMR

erre ene a

0 1
  C       36.796      79.240     222.684
  O       37.489      78.843     221.517
  H       35.731      79.314     222.449
  H       37.153      80.218     223.016
  H       36.933      78.501     223.479
  P       39.049      78.495     221.690
  C       39.611      81.036     221.353
  O       39.746      79.867     222.141
  C       40.772      81.995     221.614
  O       40.582      82.615     222.911
  C       42.145      81.321     221.617
  O       43.092      82.212     221.027
  C       42.450      81.140     223.093
  O       43.853      81.036     223.338
  C       41.763      82.371     223.702
  N       41.428      82.180     225.114
  C       42.315      82.722     226.049
  O       43.331      83.306     225.673
  N       42.056      82.551     227.384
  C       41.038      81.839     227.756
  N       40.847      81.689     229.097
  C       40.106      81.203     226.805
  C       40.352      81.420     225.514
  O       39.511      78.313     220.168
  O       39.321      77.318     222.566
  H       43.983      80.948     224.309
  H       39.130      78.972     219.565
  H       39.280      80.606     227.164
  H       39.713      80.998     224.746
  H       42.408      83.254     223.619
  H       41.977      80.222     223.463
  H       42.160      80.368     221.086
  H       40.731      82.802     220.873
  H       41.520      82.126     229.715
  H       38.665      81.539     221.578
  H       40.119      81.115     229.497
  H       39.596      80.737     220.299
  P       43.487      82.028     219.485
  C       45.385      80.306     219.776
  O       44.079      80.552     219.272
  O       44.299      83.129     218.889
  O       42.055      81.926     218.762
  H       42.115      82.405     217.910
  H       45.661      79.293     219.572
  H       45.397      80.473     220.833
  H       46.080      80.968     219.303

 6  7  8  9  10  11  12  13  14  15  16  26  30  31  32  33  35 0
 6-311+G(2d,p)
 ****
 37  38 0
 6-311+G(2d,p)
 ****
 1  2  3  4  5  17  18  19  20  21  22  23  24  25 0
 3-21G
 ****
 27  28  29  34  36  39  40  41  42  43  44  45  46 0
 3-21G
 ****


