%nproc=1
%NoSave
%Mem=1900MB
#P OB98/GEN NMR

erre ene a

0 1
  C       -9.306     -10.980      25.437
  O       -8.239     -11.358      24.595
  H       -9.558     -11.824      26.082
  H      -10.182     -10.726      24.833
  H       -9.033     -10.129      26.065
  P       -7.460     -10.224      23.778
  C       -8.085      -8.360      22.106
  O       -8.549      -9.447      22.892
  C       -8.865      -8.271      20.788
  O       -8.623      -9.475      20.015
  C      -10.376      -8.195      21.034
  O      -11.056      -7.504      19.990
  C      -10.793      -9.657      21.012
  O      -12.175      -9.841      20.708
  C       -9.847     -10.225      19.955
  N      -10.034     -14.896      17.922
  C      -10.613     -13.726      17.474
  N      -11.335     -13.812      16.331
  N      -10.514     -12.582      18.100
  C       -9.825     -12.660      19.263
  C       -9.225     -13.765      19.824
  C       -9.313     -15.019      19.104
  O       -8.838     -16.090      19.468
  N       -8.626     -13.458      21.020
  C       -8.866     -12.173      21.186
  N       -9.568     -11.638      20.134
  O       -6.642     -11.049      22.674
  O       -6.556      -9.347      24.591
  H      -12.302      -9.604      19.771
  H       -5.884     -10.527      22.354
  H      -10.116     -15.743      17.388
  H       -8.540     -11.584      22.034
  H      -10.269     -10.098      18.950
  H      -10.622     -10.077      22.007
  H      -11.595     -14.701      15.934
  H      -10.624      -7.732      21.986
  H      -12.007     -13.059      16.164
  H       -8.496      -7.431      20.189
  H       -7.024      -8.535      21.913
  H       -8.162      -7.426      22.664
  P      -11.241      -5.918      20.115
  C      -12.861      -4.297      21.440
  O      -12.548      -5.590      20.972
  O      -11.630      -5.462      18.634
  O      -10.033      -5.194      20.625
  H      -10.935      -4.886      18.262
  H      -13.781      -4.328      21.986
  H      -12.963      -3.632      20.608
  H      -12.077      -3.950      22.081

 6  7  8  9  10  11  12  13  14  15  26  29  33  34 0
 6-311+G(2d,p)
 ****
 36  38  39  40  41 0
 6-311+G(2d,p)
 ****
 1  2  3  4  5  16  17  18  19  20  21  22  23  24  25 0
 3-21G
 ****
 27  28  30  31  32  35  37  42  43  44  45  46  47 0
 3-21G
 ****
 48  49 0
 3-21G
 ****


