%nproc=1
%NoSave
%Mem=1900MB
#P OB98/GEN NMR

erre ene a

0 1
  C      225.741     238.555     -29.932
  O      225.273     239.796     -30.425
  P      223.856     240.376     -29.966
  C      221.403     239.736     -30.322
  O      222.746     239.267     -30.303
  C      220.485     238.761     -31.058
  O      220.882     238.698     -32.454
  C      220.505     237.324     -30.513
  O      219.185     236.800     -30.682
  C      221.458     236.620     -31.463
  O      221.293     235.207     -31.468
  C      221.094     237.307     -32.775
  N      223.238     234.215     -36.234
  C      222.240     234.015     -35.347
  N      221.744     234.882     -34.441
  C      222.384     236.061     -34.508
  C      223.440     236.401     -35.338
  C      223.862     235.417     -36.251
  N      224.853     235.615     -37.185
  N      223.868     237.687     -35.068
  C      223.084     238.110     -34.098
  N      222.133     237.184     -33.772
  O      223.538     241.747     -30.465
  O      223.925     240.346     -28.367
  H      221.577     234.867     -32.338
  H      224.039     241.254     -28.023
  H      221.775     233.035     -35.372
  H      223.164     239.067     -33.599
  H      220.165     236.912     -33.202
  H      222.494     236.838     -31.175
  H      220.821     237.249     -29.469
  H      219.465     239.165     -31.031
  H      221.389     240.701     -30.835
  H      224.985     234.892     -37.875
  H      225.146     236.565     -37.397
  H      221.049     239.886     -29.296
  P      218.756     235.454     -29.924
  C      218.588     232.972     -30.520
  O      218.833     234.278     -31.007
  O      217.481     235.533     -29.153
  O      220.008     235.150     -28.970
  H      219.740     234.522     -28.272
  H      219.496     232.584     -30.046
  H      218.322     232.323     -31.359
  H      217.773     232.967     -29.794
  H      226.701     238.343     -30.354
  H      225.053     237.781     -30.203
  H      225.822     238.602     -28.866

 3  4  5  6  7  8  9  10  11  12  22  25  29  30  31  32 0
 6-311+G(2d,p)
 ****
 33  36  37 0
 6-311+G(2d,p)
 ****
 1  2  13  14  15  16  17  18  19  20  21  23  24  26 0
 3-21G
 ****
 27  28  34  35  38  39  40  41  42  43  44  45  46  47  48 0
 3-21G
 ****


