%nproc=1
%NoSave
%Mem=1900MB
#P OB98/GEN NMR

erre ene a

0 1
  C       34.406    -265.576     230.937
  O       34.147    -264.700     229.839
  P       32.916    -265.000     228.863
  C       30.337    -264.800     228.941
  O       31.582    -264.363     229.478
  C       29.197    -263.939     229.493
  O       29.280    -263.807     230.933
  C       29.228    -262.507     228.971
  O       28.923    -262.318     227.606
  C       28.366    -261.775     229.988
  O       26.978    -261.905     229.689
  C       28.716    -262.527     231.291
  N       29.623    -261.769     232.154
  C       29.112    -260.595     232.699
  O       27.985    -260.170     232.452
  N       29.961    -259.898     233.517
  C       31.251    -260.235     233.807
  O       31.976    -259.559     234.527
  C       31.744    -261.471     233.183
  C       30.921    -262.173     232.398
  O       32.790    -266.409     228.394
  O       33.212    -264.028     227.615
  H       26.845    -261.591     228.774
  H       32.998    -264.518     226.798
  H       29.605    -259.048     233.925
  H       32.764    -261.768     233.387
  H       31.264    -263.090     231.930
  H       27.804    -262.737     231.869
  H       28.589    -260.703     230.006
  H       30.253    -262.126     229.098
  H       28.251    -264.427     229.261
  H       30.175    -265.849     229.190
  H       30.383    -264.744     227.849
  P       30.015    -261.900     226.509
  C       31.462    -263.112     224.734
  O       30.616    -263.234     225.855
  O       30.979    -260.824     226.880
  O       29.074    -261.353     225.323
  H       29.546    -260.632     224.864
  H       31.762    -264.115     224.414
  H       32.359    -262.541     224.986
  H       30.933    -262.627     223.906
  H       35.260    -265.226     231.479
  H       34.597    -266.562     230.569
  H       33.555    -265.596     231.586

 3  4  5  6  7  8  9  10  11  12  13  23  28  29  30  31  32 0
 6-311+G(2d,p)
 ****
 33  34 0
 6-311+G(2d,p)
 ****
 1  2  14  15  16  17  18  19  20  21  22  24  25  26  27 0
 3-21G
 ****
 35  36  37  38  39  40  41  42  43  44  45 0
 3-21G
 ****


