%nproc=1
%NoSave
%Mem=1900MB
#P OB98/GEN NMR

erre ene a

0 1
  C     -167.598     605.014    -461.603
  O     -167.341     603.956    -460.697
  H     -166.946     605.869    -461.385
  H     -167.395     604.657    -462.617
  H     -168.646     605.319    -461.534
  P     -167.475     604.306    -459.134
  C     -165.167     603.439    -458.328
  O     -165.982     604.576    -458.598
  C     -163.897     603.869    -457.603
  O     -163.126     604.754    -458.434
  C     -164.127     604.634    -456.305
  O     -164.451     603.767    -455.218
  C     -162.762     605.281    -456.112
  O     -161.848     604.322    -455.532
  C     -162.343     605.606    -457.550
  N     -160.689     610.434    -457.048
  C     -160.232     609.277    -456.527
  N     -160.733     608.030    -456.696
  C     -161.802     608.046    -457.516
  C     -162.372     609.159    -458.114
  C     -161.780     610.407    -457.856
  N     -162.259     611.591    -458.374
  N     -163.444     608.794    -458.896
  C     -163.526     607.485    -458.762
  N     -162.551     606.992    -457.939
  O     -167.865     602.903    -458.466
  O     -168.471     605.374    -458.809
  H     -160.964     604.731    -455.557
  H     -168.485     603.071    -457.727
  H     -159.363     609.355    -455.892
  H     -164.261     606.855    -459.261
  H     -161.292     605.357    -457.735
  H     -162.787     606.145    -455.451
  H     -164.888     605.422    -456.442
  H     -163.293     602.964    -457.413
  H     -164.904     602.951    -459.263
  H     -161.681     612.414    -458.312
  H     -163.071     611.555    -458.976
  H     -165.739     602.734    -457.708
  P     -164.877     604.455    -453.825
  C     -162.903     603.261    -452.642
  O     -163.534     604.501    -452.949
  O     -165.740     603.307    -453.113
  O     -165.634     605.727    -453.945
  H     -166.370     603.711    -452.480
  H     -162.026     603.442    -452.057
  H     -162.630     602.765    -453.550
  H     -163.579     602.644    -452.088

 6  7  8  9  10  11  12  13  14  15  25  28  32  33  34  35 0
 6-311+G(2d,p)
 ****
 36  39  40 0
 6-311+G(2d,p)
 ****
 1  2  3  4  5  16  17  18  19  20  21  22  23  24 0
 3-21G
 ****
 26  27  29  30  31  37  38  41  42  43  44  45  46  47  48 0
 3-21G
 ****


