%nproc=1
%NoSave
%Mem=1900MB
#P OB98/GEN NMR

erre ene a

0 1
  C      -39.858     -88.393     250.710
  O      -38.872     -88.991     249.892
  H      -40.838     -88.775     250.411
  H      -39.845     -87.308     250.579
  H      -39.685     -88.644     251.759
  P      -37.337     -88.709     250.285
  C      -36.671     -86.553     248.938
  O      -37.146     -87.120     250.148
  C      -36.113     -85.149     249.185
  O      -37.183     -84.304     249.686
  C      -34.970     -85.109     250.203
  O      -34.021     -84.126     249.781
  C      -35.650     -84.658     251.486
  O      -34.729     -84.049     252.390
  C      -36.755     -83.739     250.945
  N      -37.874     -83.603     251.877
  C      -37.614     -82.929     253.078
  O      -36.483     -82.507     253.321
  N      -38.626     -82.796     253.995
  C      -39.783     -83.348     253.763
  N      -40.739     -83.194     254.723
  C      -40.087     -84.107     252.534
  C      -39.100     -84.187     251.640
  O      -36.562     -89.298     249.015
  O      -36.923     -89.296     251.593
  H      -34.301     -83.295     251.922
  H      -36.988     -89.089     248.164
  H      -41.061     -84.560     252.395
  H      -39.241     -84.721     250.703
  H      -36.356     -82.737     250.737
  H      -36.096     -85.523     251.994
  H      -34.468     -86.068     250.331
  H      -35.804     -84.725     248.221
  H      -40.487     -82.682     255.559
  H      -37.481     -86.501     248.201
  H      -41.653     -83.623     254.671
  H      -35.887     -87.207     248.541
  P      -32.803     -84.566     248.838
  C      -30.633     -84.389     250.230
  O      -31.661     -85.244     249.744
  O      -32.311     -83.524     247.884
  O      -33.403     -85.828     248.045
  H      -33.072     -85.784     247.121
  H      -29.942     -84.959     250.814
  H      -31.065     -83.621     250.837
  H      -30.119     -83.944     249.404

 6  7  8  9  10  11  12  13  14  15  16  26  30  31  32  33  35 0
 6-311+G(2d,p)
 ****
 37  38 0
 6-311+G(2d,p)
 ****
 1  2  3  4  5  17  18  19  20  21  22  23  24  25 0
 3-21G
 ****
 27  28  29  34  36  39  40  41  42  43  44  45  46 0
 3-21G
 ****


