%nproc=1
%NoSave
%Mem=1900MB
#P OB98/GEN NMR

erre ene a

0 1
  C      182.322    -365.311     -89.772
  O      182.199    -365.305     -88.351
  P      183.243    -364.416     -87.520
  C      185.152    -366.034     -86.731
  O      184.690    -365.087     -87.676
  C      186.576    -365.689     -86.253
  O      186.518    -364.457     -85.490
  C      187.219    -366.712     -85.325
  O      188.632    -366.498     -85.311
  C      186.635    -366.322     -83.985
  O      187.389    -366.862     -82.901
  C      186.600    -364.780     -84.075
  N      185.468    -364.165     -83.349
  C      185.260    -364.528     -82.022
  O      185.960    -365.328     -81.407
  N      184.175    -363.959     -81.406
  C      183.321    -363.057     -81.963
  O      182.314    -362.649     -81.396
  C      183.667    -362.607     -83.317
  C      184.699    -363.179     -83.941
  O      182.842    -364.694     -85.999
  O      183.197    -362.964     -87.860
  H      186.851    -366.719     -82.087
  H      182.375    -363.922     -85.628
  H      183.974    -364.263     -80.464
  H      183.050    -361.839     -83.768
  H      184.954    -362.871     -84.953
  H      187.521    -364.340     -83.672
  H      185.617    -366.714     -83.895
  H      187.004    -367.753     -85.577
  H      187.213    -365.506     -87.126
  H      185.129    -367.034     -87.165
  H      184.475    -366.050     -85.868
  P      189.562    -367.558     -86.071
  C      190.104    -369.228     -84.192
  O      189.324    -368.968     -85.345
  O      190.988    -367.160     -86.260
  O      188.807    -367.754     -87.473
  H      189.424    -368.136     -88.124
  H      189.542    -369.888     -83.528
  H      190.346    -368.305     -83.654
  H      191.030    -369.727     -84.490
  H      181.567    -365.941     -90.193
  H      183.288    -365.681     -90.045
  H      182.204    -364.315     -90.144

 3  4  5  6  7  8  9  10  11  12  13  23  28  29  30  31  32 0
 6-311+G(2d,p)
 ****
 33  34 0
 6-311+G(2d,p)
 ****
 1  2  14  15  16  17  18  19  20  21  22  24  25  26  27 0
 3-21G
 ****
 35  36  37  38  39  40  41  42  43  44  45 0
 3-21G
 ****


