%nproc=1
%NoSave
%Mem=1900MB
#P OB98/GEN NMR

erre ene a

0 1
  C      899.012    -620.891    -559.085
  O      899.652    -621.634    -560.096
  H      898.930    -619.844    -559.408
  H      899.602    -620.923    -558.164
  H      898.008    -621.275    -558.892
  P      899.683    -623.228    -559.914
  C      900.762    -623.190    -557.548
  O      900.900    -623.548    -558.918
  C      902.135    -622.986    -556.919
  O      902.860    -624.239    -556.871
  C      903.036    -622.007    -557.664
  O      902.748    -620.659    -557.314
  C      904.405    -622.416    -557.142
  O      904.591    -621.907    -555.811
  C      904.273    -623.953    -557.102
  N      907.644    -627.138    -559.157
  C      907.524    -626.681    -557.857
  N      908.450    -627.140    -556.988
  N      906.597    -625.857    -557.447
  C      905.756    -625.486    -558.437
  C      905.762    -625.858    -559.763
  C      906.789    -626.781    -560.200
  O      906.920    -627.234    -561.327
  N      904.731    -625.277    -560.467
  C      904.124    -624.533    -559.570
  N      904.710    -624.604    -558.322
  O      900.216    -623.763    -561.328
  O      898.379    -623.855    -559.556
  H      904.684    -620.937    -555.885
  H      899.768    -624.601    -561.539
  H      908.385    -627.761    -559.423
  H      903.247    -623.914    -559.767
  H      904.839    -624.396    -556.275
  H      905.220    -622.040    -557.756
  H      909.222    -627.735    -557.238
  H      902.998    -622.160    -558.749
  H      908.371    -626.845    -556.013
  H      901.986    -622.665    -555.872
  H      900.236    -623.994    -557.022
  H      900.171    -622.269    -557.477
  P      902.712    -619.578    -558.506
  C      905.309    -619.737    -558.612
  O      904.171    -618.890    -558.503
  O      901.767    -618.424    -557.930
  O      902.232    -620.093    -559.819
  H      901.387    -617.906    -558.666
  H      906.199    -619.143    -558.596
  H      905.261    -620.283    -559.531
  H      905.323    -620.423    -557.791

 6  7  8  9  10  11  12  13  14  15  26  29  33  34 0
 6-311+G(2d,p)
 ****
 36  38  39  40  41 0
 6-311+G(2d,p)
 ****
 1  2  3  4  5  16  17  18  19  20  21  22  23  24  25 0
 3-21G
 ****
 27  28  30  31  32  35  37  42  43  44  45  46  47 0
 3-21G
 ****
 48  49 0
 3-21G
 ****


