%nproc=1
%NoSave
%Mem=1900MB
#P OB98/GEN NMR

erre ene a

0 1
  C       31.470     103.715      16.071
  O       30.433     104.595      16.516
  P       28.929     104.023      16.468
  C       27.463     103.029      14.559
  O       28.506     103.923      14.923
  C       26.717     103.538      13.328
  O       26.019     104.764      13.616
  C       27.614     103.859      12.140
  O       27.983     102.686      11.428
  C       26.691     104.733      11.302
  O       25.813     103.905      10.517
  C       25.896     105.501      12.370
  N       26.348     110.137      10.371
  C       25.788     108.991       9.837
  N       25.249     109.109       8.603
  N       25.759     107.841      10.453
  C       26.309     107.880      11.690
  C       26.898     108.949      12.329
  C       26.950     110.212      11.620
  O       27.465     111.246      12.036
  N       27.336     108.607      13.583
  C       26.991     107.339      13.715
  N       26.376     106.850      12.588
  O       28.062     105.255      17.008
  O       28.723     102.790      17.281
  H       25.419     104.480       9.831
  H       27.236     104.928      17.417
  H       26.352     110.997       9.848
  H       27.156     106.740      14.601
  H       24.828     105.548      12.128
  H       27.237     105.372      10.599
  H       25.171     109.979       8.100
  H       28.491     104.439      12.457
  H       24.801     108.288       8.211
  H       25.976     102.776      13.042
  H       26.763     102.919      15.391
  H       27.893     102.038      14.375
  P       29.551     102.386      11.272
  C       31.381     103.173       9.609
  O       30.015     103.193       9.965
  O       29.584     100.852      10.816
  O       30.354     102.621      12.510
  H       30.414     100.432      11.110
  H       31.804     102.169       9.710
  H       31.938     103.873      10.243
  H       31.477     103.489       8.566
  H       32.416     104.209      16.152
  H       31.295     103.444      15.051
  H       31.475     102.834      16.678

 3  4  5  6  7  8  9  10  11  12  23  26  30  31  33  0
 6-311+G(2d,p)
 ****
 35  36  37  38 0
 6-311+G(2d,p)
 ****
 1  2  13  14  15  16  17  18  19  20  21  22  24  25  27  28  29 0
 3-21G
 ****
 32  34  39  40  41  42  43  44  45  46  47  48  49 0
 3-21G
 ****


