%nproc=1
%NoSave
%Mem=1900MB
#P OB98/GEN NMR

erre ene a

0 1
  C     1399.046      68.578    -690.568
  O     1398.340      68.759    -689.349
  P     1398.234      70.249    -688.758
  C     1397.268      69.445    -686.476
  O     1398.331      70.103    -687.152
  C     1397.653      69.198    -685.017
  O     1398.708      68.215    -684.924
  C     1398.195      70.420    -684.293
  O     1397.164      71.283    -683.835
  C     1398.911      69.776    -683.119
  O     1397.963      69.420    -682.084
  C     1399.498      68.507    -683.748
  N     1404.292      67.477    -682.466
  C     1403.104      66.989    -681.938
  N     1403.212      66.145    -680.883
  N     1401.923      67.287    -682.404
  C     1401.970      68.131    -683.457
  C     1403.077      68.676    -684.078
  C     1404.378      68.348    -683.545
  O     1405.453      68.792    -683.934
  N     1402.713      69.499    -685.131
  C     1401.391      69.444    -685.155
  N     1400.890      68.672    -684.143
  O     1396.708      70.640    -688.995
  O     1399.181      71.229    -689.376
  H     1397.859      70.217    -681.510
  H     1396.593      71.606    -688.924
  H     1405.185      67.218    -682.058
  H     1400.772      69.964    -685.872
  H     1399.440      67.651    -683.085
  H     1399.662      70.435    -682.649
  H     1404.099      65.939    -680.439
  H     1398.922      70.963    -684.917
  H     1402.370      65.844    -680.428
  H     1396.772      68.799    -684.484
  H     1397.055      68.490    -686.972
  H     1396.365      70.073    -686.524
  P     1397.326      72.846    -684.191
  C     1395.794      73.461    -682.177
  O     1397.054      73.615    -682.804
  O     1396.015      73.143    -685.070
  O     1398.595      73.198    -684.905
  H     1396.181      73.896    -685.671
  H     1395.865      73.825    -681.147
  H     1395.494      72.410    -682.152
  H     1395.045      74.044    -682.699
  H     1399.034      67.542    -690.837
  H     1400.058      68.903    -690.446
  H     1398.578      69.152    -691.340

 3  4  5  6  7  8  9  10  11  12  23  26  30  31 0
 6-311+G(2d,p)
 ****
 33  35  36  37  38 0
 6-311+G(2d,p)
 ****
 1  2  13  14  15  16  17  18  19  20  21  22  24  25 0
 3-21G
 ****
 27  28  29  32  34  39  40  41  42  43  44  45  46  47  48  49 0
 3-21G
 ****


