%nproc=1
%NoSave
%Mem=1900MB
#P OB98/GEN NMR

erre ene a

0 1
  C      123.691     -61.693     -52.760
  O      122.596     -62.389     -52.202
  H      124.439     -62.421     -53.087
  H      124.145     -61.042     -52.009
  H      123.379     -61.102     -53.625
  P      121.270     -61.569     -51.826
  C      122.064     -60.974     -49.446
  O      121.693     -60.481     -50.728
  C      121.483     -60.077     -48.356
  O      121.879     -58.706     -48.576
  C      119.960     -60.066     -48.308
  O      119.464     -61.250     -47.712
  C      119.712     -58.794     -47.510
  O      119.886     -59.030     -46.105
  C      120.824     -57.866     -48.057
  N      120.346     -56.935     -49.079
  C      119.678     -55.804     -48.621
  O      119.453     -55.592     -47.431
  N      119.259     -54.927     -49.587
  C      119.365     -55.111     -50.935
  O      118.924     -54.317     -51.762
  C      120.048     -56.340     -51.361
  C      120.500     -57.183     -50.429
  O      120.077     -62.391     -51.468
  O      121.000     -60.676     -53.129
  H      119.723     -58.177     -45.657
  H      120.302     -61.087     -53.670
  H      118.763     -54.107     -49.276
  H      120.146     -56.522     -52.423
  H      121.001     -58.098     -50.724
  H      121.264     -57.280     -47.240
  H      118.702     -58.406     -47.641
  H      119.549     -59.933     -49.316
  H      121.901     -60.397     -47.392
  H      123.159     -60.977     -49.373
  H      121.698     -61.999     -49.341
  P      118.231     -62.037     -48.360
  C      116.438     -60.723     -47.088
  O      116.971     -61.040     -48.368
  O      117.955     -63.383     -47.777
  O      118.614     -62.148     -49.912
  H      118.883     -63.064     -50.120
  H      115.608     -60.057     -47.202
  H      117.193     -60.253     -46.494
  H      116.112     -61.620     -46.605

 6  7  8  9  10  11  12  13  14  15  16  26  31  32  33  34  35 0
 6-311+G(2d,p)
 ****
 36  37 0
 6-311+G(2d,p)
 ****
 1  2  3  4  5  17  18  19  20  21  22  23  24  25 0
 3-21G
 ****
 27  28  29  30  38  39  40  41  42  43  44  45 0
 3-21G
 ****


