%nproc=1
%NoSave
%Mem=1900MB
#P OB98/GEN NMR

erre ene a

0 1
  C     -947.836     942.095    -276.834
  O     -947.274     941.490    -277.986
  H     -947.160     942.886    -276.502
  H     -947.952     941.363    -276.032
  H     -948.806     942.529    -277.081
  P     -948.101     940.259    -278.619
  C     -949.103     941.772    -280.469
  O     -949.363     940.953    -279.338
  C     -949.890     941.264    -281.691
  O     -951.270     941.110    -281.369
  C     -949.819     942.183    -282.908
  O     -948.641     941.957    -283.638
  C     -951.055     941.727    -283.663
  O     -950.745     940.529    -284.412
  C     -952.056     941.412    -282.549
  N     -956.329     943.832    -284.032
  C     -955.554     942.937    -284.666
  N     -954.392     942.377    -284.227
  C     -954.076     942.813    -283.001
  C     -954.775     943.746    -282.246
  C     -955.956     944.263    -282.787
  N     -956.764     945.185    -282.146
  N     -954.147     943.964    -281.035
  C     -953.121     943.141    -281.041
  N     -953.014     942.458    -282.234
  O     -948.399     939.133    -277.699
  O     -947.153     939.880    -279.871
  H     -950.331     940.817    -285.254
  H     -946.820     940.695    -280.302
  H     -955.887     942.632    -285.649
  H     -952.421     943.004    -280.202
  H     -952.646     940.505    -282.771
  H     -951.413     942.466    -284.394
  H     -949.936     943.237    -282.617
  H     -949.499     940.257    -281.929
  H     -948.035     941.784    -280.696
  H     -957.476     945.639    -282.690
  H     -956.414     945.585    -281.293
  H     -949.407     942.794    -280.217
  P     -948.230     942.880    -284.890
  C     -945.948     943.581    -283.918
  O     -947.266     943.999    -284.268
  O     -949.386     943.385    -285.675
  O     -947.234     941.976    -285.750
  H     -947.146     942.327    -286.652
  H     -945.405     944.411    -283.516
  H     -945.447     943.215    -284.790
  H     -946.003     942.803    -283.185

 6  7  8  9  10  11  12  13  14  15  25  28  32  33  34  35 0
 6-311+G(2d,p)
 ****
 36  39  40 0
 6-311+G(2d,p)
 ****
 1  2  3  4  5  16  17  18  19  20  21  22  23  24 0
 3-21G
 ****
 26  27  29  30  31  37  38  41  42  43  44  45  46  47 0
 3-21G
 ****
 48 0
 3-21G
 ****


