%nproc=1
%NoSave
%Mem=1900MB
#P OB98/GEN NMR

erre ene a

0 1
  C       99.272      61.563      -1.133
  O      100.541      62.124      -0.868
  H       98.662      61.631      -0.230
  H       99.380      60.511      -1.405
  H       98.770      62.107      -1.940
  P      101.523      62.345      -2.116
  C      103.792      61.397      -1.273
  O      102.996      62.548      -1.507
  C      104.463      61.496       0.097
  O      103.427      61.524       1.119
  C      105.396      60.321       0.421
  O      106.507      60.821       1.172
  C      104.543      59.444       1.318
  O      105.293      58.583       2.164
  C      103.748      60.504       2.086
  N      102.537      59.962       2.700
  C      102.696      59.149       3.817
  O      103.768      58.922       4.374
  N      101.545      58.579       4.300
  C      100.295      58.719       3.776
  O       99.307      58.165       4.242
  C      100.192      59.583       2.591
  C      101.302      60.153       2.114
  O      101.129      63.808      -2.628
  O      101.433      61.316      -3.193
  H      100.416      63.756      -3.292
  H      104.665      58.165       2.788
  H      101.643      57.986       5.108
  H       99.217      59.709       2.141
  H      101.264      60.779       1.229
  H      104.375      60.968       2.856
  H      103.878      58.823       0.708
  H      105.758      59.781      -0.460
  H      105.000      62.450       0.158
  H      104.565      61.327      -2.044
  H      103.160      60.504      -1.325
  P      107.977      60.531       0.595
  C      109.078      59.489       2.732
  O      108.958      60.605       1.861
  O      108.263      61.881      -0.210
  O      108.049      59.281      -0.215
  H      107.880      62.667       0.215
  H      109.771      59.719       3.514
  H      109.430      58.642       2.181
  H      108.122      59.265       3.158

 6  7  8  9  10  11  12  13  14  15  16  27  31  32  33  34  35 0
 6-311+G(2d,p)
 ****
 36  37 0
 6-311+G(2d,p)
 ****
 1  2  3  4  5  17  18  19  20  21  22  23  24  25 0
 3-21G
 ****
 26  28  29  30  38  39  40  41  42  43  44  45 0
 3-21G
 ****


