%nproc=1
%NoSave
%Mem=1900MB
#P OB98/GEN NMR

erre ene a

0 1
  C      365.898    -363.395    -452.012
  O      365.462    -362.335    -452.862
  P      365.620    -362.546    -454.448
  C      368.154    -361.920    -454.691
  O      367.163    -362.944    -454.684
  C      369.292    -362.291    -455.659
  O      370.238    -361.173    -455.742
  C      370.083    -363.550    -455.270
  O      370.416    -364.217    -456.494
  C      371.335    -362.977    -454.623
  O      372.409    -363.909    -454.637
  C      371.543    -361.721    -455.472
  N      372.418    -360.740    -454.828
  C      373.788    -360.996    -454.846
  O      374.269    -362.030    -455.308
  N      374.582    -360.039    -454.272
  C      374.148    -358.913    -453.623
  O      374.903    -358.090    -453.134
  C      372.685    -358.755    -453.535
  C      371.900    -359.661    -454.133
  O      365.510    -361.042    -454.978
  O      364.614    -363.500    -455.015
  H      365.924    -360.390    -454.393
  H      373.253    -363.426    -454.524
  H      375.583    -360.190    -454.310
  H      372.300    -357.902    -452.987
  H      370.819    -359.584    -454.068
  H      371.994    -361.987    -456.440
  H      371.119    -362.709    -453.584
  H      369.518    -364.214    -454.629
  H      368.854    -362.412    -456.658
  H      368.575    -361.805    -453.688
  H      367.688    -360.967    -454.965
  P      369.913    -365.735    -456.697
  C      372.075    -366.950    -455.825
  O      370.704    -366.636    -455.633
  O      370.638    -366.093    -458.080
  O      368.427    -365.911    -456.754
  H      371.579    -365.826    -458.097
  H      372.473    -367.356    -454.896
  H      372.646    -366.063    -456.109
  H      372.165    -367.710    -456.615
  H      365.736    -363.122    -450.990
  H      366.941    -363.574    -452.172
  H      365.345    -364.283    -452.237

 3  4  5  6  7  8  9  10  11  12  13  24  28  29  30  31  32 0
 6-311+G(2d,p)
 ****
 33  34 0
 6-311+G(2d,p)
 ****
 1  2  14  15  16  17  18  19  20  21  22  23  25  26  27 0
 3-21G
 ****
 35  36  37  38  39  40  41  42  43  44  45 0
 3-21G
 ****


