%nproc=1
%NoSave
%Mem=1900MB
#P OB98/GEN NMR

erre ene a

0 1
  C      294.117    -891.600     749.383
  O      293.984    -892.570     750.445
  P      293.603    -894.110     750.186
  C      295.726    -895.130     751.291
  O      294.289    -895.000     751.334
  C      296.334    -894.880     752.663
  O      296.195    -893.480     753.040
  C      295.681    -895.640     753.826
  O      295.985    -897.020     753.814
  C      296.232    -894.870     755.020
  O      297.517    -895.350     755.409
  C      296.336    -893.410     754.490
  N      295.354    -892.520     755.046
  C      295.848    -891.460     755.850
  O      297.047    -891.400     756.092
  N      294.975    -890.540     756.335
  C      293.686    -890.710     756.159
  N      292.847    -889.770     756.660
  C      293.110    -891.880     755.456
  C      293.986    -892.730     754.910
  O      293.897    -894.590     748.807
  O      292.035    -894.210     750.512
  H      291.649    -894.970     750.009
  H      297.845    -894.770     756.099
  H      292.043    -891.980     755.349
  H      293.659    -893.600     754.356
  H      297.349    -893.020     754.669
  H      295.567    -894.960     755.911
  H      294.590    -895.500     753.778
  H      297.395    -895.130     752.627
  H      293.285    -888.970     757.126
  H      296.121    -894.400     750.574
  H      291.846    -889.780     756.546
  H      295.969    -896.140     750.915
  P      294.776    -898.030     754.042
  C      295.367    -899.180     751.762
  O      295.084    -899.340     753.137
  O      293.550    -897.350     753.297
  O      294.456    -898.330     755.466
  H      292.742    -897.460     753.806
  H      295.974    -900.000     751.426
  H      295.883    -898.240     751.573
  H      294.419    -899.170     751.195
  H      294.375    -890.649     749.799
  H      293.190    -891.519     748.856
  H      294.885    -891.914     748.708

 3  4  5  6  7  8  9  10  11  12  13  24  27  28  29  30  32 0
 6-311+G(2d,p)
 ****
 34  35 0
 6-311+G(2d,p)
 ****
 1  2  14  15  16  17  18  19  20  21  22  23  25  26 0
 3-21G
 ****
 31  33  36  37  38  39  40  41  42  43  44  45  46 0
 3-21G
 ****


