%nproc=1
%NoSave
%Mem=1900MB
#P OB98/GEN NMR

erre ene a

0 1
  C     -377.234      60.587     328.431
  O     -378.147      59.556     328.838
  P     -377.780      57.996     328.825
  C     -379.530      57.720     326.935
  O     -378.230      57.388     327.406
  C     -380.025      56.690     325.915
  O     -379.636      55.357     326.324
  C     -381.532      56.604     325.751
  O     -382.063      57.709     325.037
  C     -381.680      55.262     325.034
  O     -381.498      55.405     323.621
  C     -380.516      54.443     325.634
  N     -380.975      53.381     326.519
  C     -381.405      52.195     325.910
  O     -381.462      52.114     324.681
  N     -381.771      51.142     326.713
  C     -381.806      51.297     328.001
  N     -382.162      50.215     328.742
  C     -381.495      52.572     328.672
  C     -381.091      53.560     327.879
  O     -378.313      57.234     329.998
  O     -376.177      57.934     328.783
  H     -375.871      57.098     329.175
  H     -382.103      56.113     323.327
  H     -381.582      52.670     329.751
  H     -380.823      54.531     328.294
  H     -379.916      54.005     324.833
  H     -382.666      54.819     325.193
  H     -382.003      56.542     326.741
  H     -379.541      56.911     324.949
  H     -382.363      49.351     328.254
  H     -379.477      58.705     326.447
  H     -382.197      50.218     329.755
  H     -380.217      57.790     327.787
  P     -382.754      58.869     325.904
  C     -384.986      57.562     325.674
  O     -384.101      58.272     326.526
  O     -383.270      59.907     324.790
  O     -381.849      59.533     326.885
  H     -383.139      60.819     325.114
  H     -385.549      56.841     326.280
  H     -384.446      57.023     324.891
  H     -385.691      58.263     325.214
  H     -377.707      61.542     328.528
  H     -376.952      60.431     327.411
  H     -376.362      60.556     329.051

 3  4  5  6  7  8  9  10  11  12  13  24  27  28  29  30  32 0
 6-311+G(2d,p)
 ****
 34  35 0
 6-311+G(2d,p)
 ****
 1  2  14  15  16  17  18  19  20  21  22  23  25  26 0
 3-21G
 ****
 31  33  36  37  38  39  40  41  42  43  44  45  46 0
 3-21G
 ****


