%nproc=1
%NoSave
%Mem=1900MB
#P OB98/GEN NMR

erre ene a

0 1
  C     -785.539    -244.919     324.927
  O     -784.496    -245.015     323.977
  H     -785.689    -245.905     325.377
  H     -786.470    -244.609     324.440
  H     -785.275    -244.205     325.709
  P     -784.100    -243.659     323.206
  C     -781.648    -243.972     322.401
  O     -783.032    -244.069     322.089
  C     -780.851    -244.906     321.492
  O     -780.661    -246.186     322.139
  C     -781.535    -245.220     320.170
  O     -781.408    -244.175     319.227
  C     -780.809    -246.495     319.762
  O     -779.567    -246.206     319.117
  C     -780.561    -247.185     321.110
  N     -781.001    -252.187     322.047
  C     -779.913    -251.380     321.924
  N     -779.881    -250.055     321.692
  C     -781.128    -249.560     321.611
  C     -782.324    -250.253     321.705
  C     -782.233    -251.636     321.942
  N     -783.323    -252.472     322.039
  N     -783.396    -249.397     321.520
  C     -782.866    -248.214     321.312
  N     -781.504    -248.258     321.359
  O     -783.233    -242.863     324.285
  O     -785.262    -242.853     322.720
  H     -779.129    -245.513     319.657
  H     -783.782    -242.188     324.725
  H     -778.955    -251.867     322.043
  H     -783.431    -247.310     321.122
  H     -779.550    -247.620     321.175
  H     -781.413    -247.088     319.075
  H     -782.591    -245.463     320.344
  H     -779.855    -244.455     321.322
  H     -781.490    -244.253     323.444
  H     -781.332    -242.933     322.262
  H     -783.178    -253.452     322.138
  H     -784.243    -252.081     321.844
  P     -782.470    -244.125     318.034
  C     -782.857    -241.541     317.992
  O     -782.330    -242.687     317.327
  O     -783.888    -244.053     318.761
  O     -782.384    -245.276     317.079
  H     -784.551    -244.556     318.243
  H     -782.684    -240.671     317.394
  H     -782.374    -241.425     318.939
  H     -783.909    -241.668     318.141

 6  7  8  9  10  11  12  13  14  15  25  28  32  33  34  35 0
 6-311+G(2d,p)
 ****
 36  37  40 0
 6-311+G(2d,p)
 ****
 1  2  3  4  5  16  17  18  19  20  21  22  23  24 0
 3-21G
 ****
 26  27  29  30  31  38  39 41  42  43  44  45  46  47  48 0
 3-21G
 ****


