%nproc=1
%NoSave
%Mem=1900MB
#P OB98/GEN NMR

erre ene a

0 1
  C      -57.923      82.862      64.806
  O      -58.813      83.829      65.345
  P      -60.382      83.643      65.049
  C      -60.394      85.971      63.896
  O      -60.696      84.584      63.788
  C      -59.744      86.479      62.613
  O      -58.668      85.605      62.220
  C      -60.678      86.545      61.415
  O      -61.473      87.719      61.416
  C      -59.678      86.583      60.271
  O      -59.149      87.913      60.129
  C      -58.586      85.630      60.770
  N      -57.444      82.498      56.895
  C      -57.224      83.816      57.081
  N      -57.568      84.581      58.137
  C      -58.242      83.859      59.047
  C      -58.575      82.516      58.976
  C      -58.136      81.817      57.841
  N      -58.339      80.467      57.665
  N      -59.272      82.130      60.100
  C      -59.349      83.213      60.842
  N      -58.733      84.283      60.254
  O      -61.073      84.417      66.268
  O      -60.841      82.230      64.946
  H      -59.911      88.523      60.125
  H      -61.978      84.079      66.407
  H      -56.690      84.321      56.280
  H      -59.830      83.268      61.809
  H      -57.580      85.975      60.509
  H      -60.121      86.310      59.309
  H      -61.290      85.637      61.337
  H      -59.316      87.469      62.821
  H      -59.703      86.121      64.731
  H      -57.838      80.008      56.921
  H      -58.673      79.931      58.458
  H      -61.317      86.522      64.102
  P      -62.993      87.565      61.911
  C      -63.586      88.604      59.605
  O      -63.879      87.621      60.578
  O      -63.283      88.964      62.629
  O      -63.225      86.401      62.814
  H      -63.986      88.864      63.298
  H      -64.054      88.314      58.660
  H      -62.508      88.695      59.446
  H      -63.995      89.568      59.918
  H      -56.919      83.110      65.080
  H      -58.010      82.853      63.740
  H      -58.170      81.895      65.192

 3  4  5  6  7  8  9  10  11  12  22  25  29  30  31  32 0
 6-311+G(2d,p)
 ****
 33  36  37 0
 6-311+G(2d,p)
 ****
 1  2  13  14  15  16  17  18  19  20  21  23  24  26 0
 3-21G
 ****
 27  28  34  35  38  39  40  41  42  43  44  45  46  47  48 0
 3-21G
 ****


