%nproc=1
%NoSave
%Mem=1900MB
#P OB98/GEN NMR

erre ene a

0 1
  C     -290.735    -295.290    1107.616
  O     -291.926    -296.047    1107.720
  H     -290.154    -295.652    1106.771
  H     -290.139    -295.388    1108.529
  H     -290.978    -294.230    1107.449
  P     -292.870    -295.736    1108.979
  C     -294.949    -295.253    1107.484
  O     -293.978    -294.735    1108.374
  C     -296.328    -294.682    1107.826
  O     -296.286    -293.234    1107.822
  C     -297.445    -295.061    1106.839
  O     -297.920    -296.369    1107.014
  C     -298.477    -294.022    1107.205
  O     -299.100    -294.381    1108.454
  C     -297.593    -292.766    1107.366
  N     -297.455    -291.994    1106.126
  C     -298.369    -290.949    1105.933
  O     -299.246    -290.722    1106.775
  N     -298.301    -290.223    1104.776
  C     -297.392    -290.476    1103.890
  N     -297.375    -289.708    1102.761
  C     -296.401    -291.555    1104.056
  C     -296.484    -292.258    1105.185
  O     -291.975    -294.765    1109.883
  O     -293.420    -296.921    1109.705
  H     -298.390    -294.528    1109.089
  H     -292.516    -294.383    1110.621
  H     -295.654    -291.746    1103.296
  H     -295.784    -293.057    1105.380
  H     -297.987    -292.090    1108.154
  H     -299.273    -293.922    1106.466
  H     -297.125    -294.891    1105.797
  H     -296.586    -294.997    1108.844
  H     -298.102    -289.023    1102.643
  H     -294.968    -296.347    1107.582
  H     -296.795    -289.942    1101.967
  H     -294.704    -294.997    1106.456
  P     -298.502    -297.130    1105.716
  C     -296.813    -299.084    1106.120
  O     -297.347    -298.131    1105.204
  O     -298.511    -295.979    1104.603
  O     -299.849    -297.756    1105.896
  H     -299.265    -296.089    1103.986
  H     -296.062    -299.668    1105.630
  H     -297.597    -299.726    1106.464
  H     -296.379    -298.573    1106.954

 6  7  8  9  10  11  12  13  14  15  16  26  30  31  32  33  35 0
 6-311+G(2d,p)
 ****
 37  38 0
 6-311+G(2d,p)
 ****
 1  2  3  4  5  17  18  19  20  21  22  23  24  25 0
 3-21G
 ****
 27  28  29  34  36  39  40  41  42  43  44  45  46 0
 3-21G
 ****


