%nproc=1
%NoSave
%Mem=1900MB
#P OB98/GEN NMR

erre ene a

0 1
  C       41.556    -105.788    -319.641
  O       40.303    -105.938    -320.261
  P       38.935    -105.392    -319.649
  C       37.719    -107.693    -319.384
  O       37.764    -106.420    -320.022
  C       36.368    -108.386    -319.634
  O       35.311    -107.524    -319.136
  C       36.104    -108.587    -321.142
  O       35.536    -109.849    -321.461
  C       35.309    -107.346    -321.514
  O       34.568    -107.489    -322.719
  C       34.496    -107.107    -320.247
  N       31.079    -103.484    -321.297
  C       31.001    -104.845    -321.526
  N       29.967    -105.263    -322.288
  N       31.882    -105.700    -321.071
  C       32.920    -105.125    -320.428
  C       33.105    -103.789    -320.141
  C       32.108    -102.858    -320.613
  O       32.197    -101.633    -320.536
  N       34.310    -103.561    -319.521
  C       34.873    -104.752    -319.470
  N       34.078    -105.728    -320.034
  O       38.667    -103.928    -319.801
  O       39.147    -105.681    -318.071
  H       34.075    -106.655    -322.860
  H       38.698    -104.962    -317.583
  H       30.414    -102.863    -321.742
  H       35.854    -104.963    -319.065
  H       33.581    -107.698    -320.242
  H       36.030    -106.530    -321.680
  H       29.360    -104.611    -322.771
  H       37.050    -108.586    -321.695
  H       30.023    -106.205    -322.670
  H       36.331    -109.321    -319.067
  H       37.856    -107.508    -318.315
  H       38.547    -108.326    -319.725
  P       36.099    -110.983    -322.437
  C       34.389    -110.362    -324.248
  O       34.938    -111.399    -323.461
  O       36.244    -112.284    -321.511
  O       37.405    -110.659    -323.078
  H       37.059    -112.765    -321.755
  H       33.447    -110.711    -324.686
  H       35.081    -110.111    -325.058
  H       34.193    -109.470    -323.640
  H       42.312    -106.239    -320.250
  H       41.539    -106.264    -318.683
  H       41.771    -104.747    -319.518

 3  4  5  6  7  8  9  10  11  12  23  26  30  31 0
 6-311+G(2d,p)
 ****
 33  35  36  37  38 0
 6-311+G(2d,p)
 ****
 1  2  13  14  15  16  17  18  19  20  21  22  24  25 0
 3-21G
 ****
 27  28  29  32  34  39  40  41  42  43  44  45  46  47  48  49 0
 3-21G
 ****


