%nproc=1
%NoSave
%Mem=1900MB
#P OB98/GEN NMR

erre ene a

0 1
  C     -184.855       0.291     114.039
  O     -186.137       0.229     113.446
  H     -184.187       0.848     113.376
  H     -184.460      -0.721     114.165
  H     -184.896       0.800     115.006
  P     -187.347      -0.268     114.373
  C     -188.288      -1.904     112.596
  O     -187.730      -1.756     113.892
  C     -189.241      -3.099     112.559
  O     -188.461      -4.321     112.642
  C     -190.257      -3.114     113.710
  O     -191.511      -3.590     113.214
  C     -189.674      -4.129     114.681
  O     -190.670      -4.727     115.512
  C     -188.993      -5.106     113.725
  N     -187.964      -8.026     117.703
  C     -189.167      -7.505     117.267
  N     -190.259      -7.798     118.006
  N     -189.286      -6.757     116.199
  C     -188.116      -6.577     115.538
  C     -186.862      -7.036     115.871
  C     -186.736      -7.838     117.071
  O     -185.696      -8.309     117.522
  N     -185.921      -6.610     114.967
  C     -186.606      -5.897     114.090
  N     -187.941      -5.853     114.392
  O     -188.580       0.619     113.867
  O     -187.133      -0.118     115.844
  H     -191.039      -4.019     116.085
  H     -188.881       1.208     114.587
  H     -187.927      -8.584     118.541
  H     -186.187      -5.386     113.231
  H     -189.697      -5.839     113.305
  H     -188.937      -3.640     115.329
  H     -190.246      -8.405     118.811
  H     -190.395      -2.134     114.173
  H     -191.158      -7.456     117.683
  H     -189.748      -3.112     111.588
  H     -187.475      -2.063     111.875
  H     -188.826      -0.989     112.325
  P     -192.702      -2.518     113.100
  C     -193.322      -3.020     115.565
  O     -193.079      -2.025     114.582
  O     -193.960      -3.411     112.671
  O     -192.443      -1.429     112.111
  H     -194.187      -3.239     111.737
  H     -193.560      -2.550     116.497
  H     -192.448      -3.625     115.684
  H     -194.142      -3.634     115.256

 6  7  8  9  10  11  12  13  14  15  26  29  33  34 0
 6-311+G(2d,p)
 ****
 36  38  39  40  41 0
 6-311+G(2d,p)
 ****
 1  2  3  4  5  16  17  18  19  20  21  22  23  24  25 0
 3-21G
 ****
 27  28  30  31  32  35  37  42  43  44  45  46  47 0
 3-21G
 ****
 48  49 0
 3-21G
 ****


