%nproc=1
%NoSave
%Mem=1900MB
#P OB98/GEN NMR

erre ene a

0 1
  C      676.147     -93.417     283.098
  O      676.946     -94.049     284.076
  H      676.556     -93.593     282.097
  H      675.137     -93.833     283.147
  H      676.095     -92.341     283.293
  P      678.498     -93.645     284.096
  C      678.912     -94.979     286.284
  O      679.256     -94.805     284.913
  C      678.714     -96.458     286.589
  O      677.558     -96.966     285.881
  C      679.872     -97.362     286.172
  O      680.950     -97.314     287.095
  C      679.183     -98.720     286.176
  O      679.116     -99.224     287.530
  C      677.776     -98.387     285.671
  N      677.169    -102.104     282.167
  C      677.336    -102.146     283.511
  N      677.507    -101.120     284.376
  C      677.464     -99.943     283.734
  C      677.290     -99.735     282.370
  C      677.144    -100.891     281.571
  N      676.983    -100.834     280.200
  N      677.283     -98.397     282.069
  C      677.453     -97.789     283.229
  N      677.571     -98.685     284.267
  O      678.550     -92.394     285.094
  O      679.092     -93.313     282.765
  H      679.089     -98.449     288.118
  H      679.224     -91.761     284.778
  H      677.342    -103.140     283.951
  H      677.485     -96.716     283.371
  H      677.005     -98.913     286.244
  H      679.712     -99.474     285.580
  H      680.207     -97.128     285.152
  H      678.515     -96.558     287.666
  H      677.987     -94.440     286.500
  H      676.687    -101.664     279.713
  H      676.958     -99.914     279.756
  H      679.718     -94.571     286.902
  P      682.381     -97.848     286.597
  C      683.294     -97.361     288.974
  O      683.155     -98.310     287.923
  O      683.146     -96.498     286.176
  O      682.329     -98.830     285.473
  H      683.830     -96.699     285.507
  H      683.827     -97.806     289.788
  H      682.325     -97.054     289.308
  H      683.834     -96.509     288.617

 6  7  8  9  10  11  12  13  14  15  25  28  32  33  34  35 0
 6-311+G(2d,p)
 ****
 36  39  40 0
 6-311+G(2d,p)
 ****
 1  2  3  4  5  16  17  18  19  20  21  22  23  24 0
 3-21G
 ****
 26  27  29  30  31  37  38  41  42  43  44  45  46  47  48 0
 3-21G
 ****


