%nproc=1
%NoSave
%Mem=1900MB
#P OB98/GEN NMR

erre ene a

0 1
  C      -52.662     321.395     267.027
  O      -53.514     320.285     267.191
  P      -55.105     320.379     267.193
  C      -55.444     321.948     269.255
  O      -55.598     320.654     268.695
  C      -56.578     322.259     270.247
  O      -56.233     323.460     270.979
  C      -57.901     322.538     269.520
  O      -59.040     321.955     270.139
  C      -57.890     324.054     269.367
  O      -59.176     324.615     269.140
  C      -57.192     324.490     270.655
  N      -57.646     329.506     269.986
  C      -58.632     328.570     270.228
  N      -59.905     328.997     270.098
  N      -58.380     327.320     270.538
  C      -57.064     327.013     270.521
  C      -56.000     327.855     270.297
  C      -56.287     329.237     269.990
  O      -55.450     330.078     269.658
  N      -54.806     327.179     270.291
  C      -55.150     325.921     270.479
  N      -56.513     325.767     270.592
  O      -55.839     319.359     266.387
  O      -55.347     321.817     266.494
  H      -59.054     325.564     268.966
  H      -56.172     321.748     265.974
  H      -57.902     330.434     269.673
  H      -54.460     325.085     270.513
  H      -57.897     324.564     271.487
  H      -57.280     324.295     268.492
  H      -60.125     329.908     269.718
  H      -57.896     322.084     268.522
  H      -60.626     328.285     270.021
  H      -56.659     321.437     270.966
  H      -55.475     322.653     268.416
  H      -54.467     322.046     269.740
  P      -60.304     321.258     269.456
  C      -61.967     323.202     269.647
  O      -61.637     321.894     270.075
  O      -60.321     319.767     270.034
  O      -60.270     321.232     267.964
  H      -60.570     319.144     269.329
  H      -62.713     323.614     270.332
  H      -62.393     323.159     268.642
  H      -61.085     323.848     269.651
  H      -51.643     321.071     267.063
  H      -52.840     322.100     267.812
  H      -52.856     321.857     266.082

 3  4  5  6  7  8  9  10  11  12  23  26  30  31 0
 6-311+G(2d,p)
 ****
 33  35  36  37  38 0
 6-311+G(2d,p)
 ****
 1  2  13  14  15  16  17  18  19  20  21  22  24  25 0
 3-21G
 ****
 27  28  29  32  34  39  40  41  42  43  44  45  46  47  48  49 0
 3-21G
 ****


