%nproc=1
%NoSave
%Mem=1900MB
#P OB98/GEN NMR

erre ene a

0 1
  C       66.312       6.493      81.121
  O       65.118       5.762      80.903
  P       64.478       5.616      79.436
  C       62.734       7.358      80.219
  O       63.640       6.963      79.204
  C       61.826       8.482      79.713
  O       62.597       9.711      79.663
  C       61.241       8.243      78.316
  O       59.928       8.814      78.301
  C       62.177       9.031      77.419
  O       61.585       9.369      76.173
  C       62.501      10.228      78.319
  N       63.730      10.907      77.928
  C       63.708      12.300      77.854
  O       62.677      12.930      78.086
  N       64.864      12.959      77.513
  C       65.923      12.283      77.191
  N       67.058      12.982      76.918
  C       65.958      10.809      77.151
  C       64.847      10.196      77.549
  O       63.712       4.359      79.210
  O       65.713       5.818      78.445
  H       62.233       9.884      75.655
  H       66.219       4.983      78.283
  H       66.856      10.292      76.848
  H       64.788       9.118      77.576
  H       61.668      10.940      78.316
  H       63.074       8.437      77.214
  H       61.178       7.182      78.060
  H       61.022       8.631      80.444
  H       67.042      13.976      77.125
  H       63.310       7.727      81.072
  H       67.970      12.543      76.983
  H       62.146       6.495      80.546
  P       58.744       7.980      77.608
  C       58.536       9.612      75.601
  O       58.772       8.290      76.037
  O       57.448       8.802      78.086
  O       58.614       6.548      78.013
  H       56.676       8.205      78.084
  H       58.600       9.637      74.510
  H       59.289      10.291      76.009
  H       57.537       9.941      75.900
  H       66.562       6.465      82.161
  H       66.169       7.508      80.815
  H       67.106       6.057      80.551

 3  4  5  6  7  8  9  10  11  12  13  23  27  28  29  30  32 0
 6-311+G(2d,p)
 ****
 34  35 0
 6-311+G(2d,p)
 ****
 1  2  14  15  16  17  18  19  20  21  22  24  25  26 0
 3-21G
 ****
 31  33  36  37  38  39  40  41  42  43  44  45  46 0
 3-21G
 ****


