%nproc=1
%NoSave
%Mem=1900MB
#P OB98/GEN NMR

erre ene a

0 1
  C      402.946    -727.530     531.461
  O      401.636    -727.454     531.998
  P      401.100    -726.012     532.467
  C      401.989    -724.364     534.277
  O      401.784    -725.719     533.889
  C      403.013    -724.289     535.410
  O      404.333    -724.631     534.929
  C      403.162    -722.905     536.026
  O      402.138    -722.631     536.981
  C      404.504    -723.042     536.721
  O      404.355    -723.745     537.976
  C      405.297    -723.897     535.717
  N      409.935    -721.977     535.106
  C      409.477    -722.897     536.025
  N      410.375    -723.322     536.954
  N      408.265    -723.366     536.043
  C      407.469    -722.848     535.062
  C      407.819    -721.930     534.093
  C      409.169    -721.415     534.098
  O      409.618    -720.559     533.340
  N      406.756    -721.649     533.273
  C      405.769    -722.398     533.738
  N      406.143    -723.109     534.851
  O      399.566    -726.291     532.836
  O      401.251    -724.935     531.441
  H      403.742    -724.483     537.808
  H      399.074    -725.445     532.867
  H      410.892    -721.642     535.137
  H      404.775    -722.438     533.322
  H      405.928    -724.636     536.235
  H      404.964    -722.068     536.947
  H      411.310    -722.956     537.030
  H      403.220    -722.127     535.257
  H      410.042    -723.956     537.683
  H      402.730    -725.035     536.172
  H      401.050    -723.930     534.597
  H      402.342    -723.797     533.405
  P      402.034    -721.127     537.500
  C      403.960    -719.669     538.484
  O      403.279    -720.922     538.485
  O      400.762    -721.167     538.485
  O      401.871    -720.098     536.419
  H      400.351    -720.287     538.543
  H      404.582    -719.610     539.376
  H      403.251    -718.835     538.500
  H      404.591    -719.593     537.592
  H      403.164    -728.543     531.195
  H      403.651    -727.194     532.192
  H      403.011    -726.911     530.591

 3  4  5  6  7  8  9  10  11  12  23  26  30  31 0
 6-311+G(2d,p)
 ****
 33  35  36  37  38 0
 6-311+G(2d,p)
 ****
 1  2  13  14  15  16  17  18  19  20  21  22  24  25 0
 3-21G
 ****
 27  28  29  32  34  39  40  41  42  43  44  45  46  47  48  49 0
 3-21G
 ****


