%nproc=1
%NoSave
%Mem=1900MB
#P OB98/GEN NMR

erre ene a

0 1
  C      326.271    -409.916    -132.062
  O      325.838    -408.740    -131.377
  P      326.630    -408.368    -130.032
  C      327.790    -406.247    -130.973
  O      326.881    -406.784    -130.022
  C      327.188    -405.016    -131.660
  O      326.176    -405.369    -132.623
  C      326.527    -404.049    -130.693
  O      327.507    -403.250    -130.054
  C      325.618    -403.252    -131.623
  O      326.337    -402.182    -132.266
  C      325.186    -404.308    -132.658
  N      320.243    -403.781    -133.647
  C      321.298    -402.922    -133.905
  N      320.990    -401.775    -134.542
  N      322.537    -403.172    -133.573
  C      322.695    -404.361    -132.943
  C      321.739    -405.306    -132.654
  C      320.370    -405.014    -133.027
  O      319.406    -405.752    -132.837
  N      322.292    -406.414    -132.063
  C      323.552    -406.082    -131.882
  N      323.864    -404.874    -132.457
  O      328.085    -408.990    -130.277
  O      326.000    -408.923    -128.797
  H      326.505    -401.477    -131.614
  H      328.221    -409.760    -129.694
  H      319.309    -403.535    -133.913
  H      324.288    -406.686    -131.369
  H      325.192    -403.896    -133.674
  H      324.790    -402.789    -131.081
  H      320.059    -401.519    -134.830
  H      325.923    -404.601    -129.957
  H      321.747    -401.132    -134.751
  H      328.003    -404.511    -132.194
  H      328.041    -407.002    -131.719
  H      328.722    -405.988    -130.460
  P      327.085    -402.463    -128.723
  C      328.379    -403.862    -126.961
  O      328.270    -402.640    -127.666
  O      325.901    -403.365    -128.132
  O      326.630    -401.061    -128.952
  H      325.172    -402.789    -127.837
  H      329.428    -404.035    -126.715
  H      328.005    -404.702    -127.547
  H      327.809    -403.787    -126.030
  H      325.672    -410.060    -132.937
  H      326.168    -410.763    -131.416
  H      327.297    -409.806    -132.346

 3  4  5  6  7  8  9  10  11  12  23  26  30  31 0
 6-311+G(2d,p)
 ****
 33  35  36  37  38 0
 6-311+G(2d,p)
 ****
 1  2  13  14  15  16  17  18  19  20  21  22  24  25 0
 3-21G
 ****
 27  28  29  32  34  39  40  41  42  43  44  45  46  47  48  49 0
 3-21G
 ****


