%nproc=1
%NoSave
%Mem=1900MB
#P OB98/GEN NMR

erre ene a

0 1
  C       50.902     192.540     367.698
  O       49.815     192.166     368.523
  P       48.765     191.059     368.073
  C       48.459     190.503     370.583
  O       47.805     190.777     369.340
  C       47.514     189.747     371.511
  O       46.358     190.587     371.823
  C       46.982     188.421     370.884
  O       47.173     187.260     371.693
  C       45.535     188.761     370.569
  O       44.692     187.627     370.418
  C       45.189     189.742     371.696
  N       43.977     190.515     371.421
  C       42.758     189.838     371.514
  O       42.635     188.662     371.822
  N       41.644     190.575     371.178
  C       41.643     191.821     370.647
  O       40.614     192.389     370.275
  C       42.960     192.473     370.530
  C       44.052     191.813     370.934
  O       49.359     189.818     367.477
  O       47.787     191.847     367.086
  H       45.102     187.044     369.761
  H       47.333     192.604     367.487
  H       40.759     190.083     371.250
  H       42.994     193.459     370.107
  H       45.043     192.265     370.862
  H       45.046     189.225     372.643
  H       45.520     189.296     369.599
  H       47.514     188.188     369.964
  H       48.051     189.532     372.446
  H       48.727     191.452     371.047
  H       49.387     189.946     370.393
  P       47.012     185.747     371.187
  C       48.965     184.873     372.693
  O       47.599     184.774     372.321
  O       47.526     185.486     369.804
  O       45.433     185.494     371.268
  H       45.177     184.826     370.594
  H       49.304     183.896     373.040
  H       49.061     185.600     373.510
  H       49.590     185.196     371.850
  H       51.480     193.295     368.189
  H       50.531     192.923     366.770
  H       51.518     191.685     367.510

 3  4  5  6  7  8  9  10  11  12  13  23  28  29  30  31  32 0
 6-311+G(2d,p)
 ****
 33  34 0
 6-311+G(2d,p)
 ****
 1  2  14  15  16  17  18  19  20  21  22  24  25  26  27 0
 3-21G
 ****
 35  36  37  38  39  40  41  42  43  44  45 0
 3-21G
 ****


