%nproc=1
%NoSave
%Mem=1900MB
#P OB98/GEN NMR

erre ene a

0 1
  C       15.401     142.074     473.233
  O       15.888     140.754     473.334
  H       15.800     142.528     472.322
  H       15.732     142.664     474.092
  H       14.310     142.074     473.180
  P       15.402     139.887     474.598
  C       13.871     137.835     474.129
  O       15.168     138.405     474.017
  C       12.973     138.319     472.987
  O       13.605     138.005     471.721
  C       11.588     137.671     472.989
  O       10.599     138.666     472.713
  C       11.650     136.649     471.868
  O       10.366     136.371     471.317
  C       12.656     137.294     470.906
  N       13.315     136.299     470.062
  C       12.962     136.282     468.711
  O       12.118     137.072     468.280
  N       13.528     135.339     467.891
  C       14.330     134.452     468.388
  N       14.840     133.530     467.527
  C       14.695     134.402     469.816
  C       14.161     135.348     470.587
  O       13.922     140.428     474.856
  O       16.292     139.952     475.794
  H       10.483     135.723     470.587
  H       13.577     140.135     475.735
  H       15.356     133.629     470.187
  H       14.371     135.389     471.652
  H       12.153     138.027     470.256
  H       12.059     135.708     472.258
  H       11.345     137.192     473.937
  H       12.902     139.411     473.037
  H       14.558     133.590     466.556
  H       13.434     138.131     475.088
  H       15.449     132.776     467.810
  H       13.953     136.744     474.094
  P        9.807     139.243     473.983
  C        9.279     141.488     472.801
  O        8.761     140.336     473.445
  O       10.909     140.111     474.751
  O        9.213     138.182     474.848
  H       11.281     139.606     475.498
  H        8.471     142.121     472.499
  H        9.842     141.193     471.940
  H        9.915     142.019     473.478

 6  7  8  9  10  11  12  13  14  15  16  26  30  31  32  33  35 0
 6-311+G(2d,p)
 ****
 37  38 0
 6-311+G(2d,p)
 ****
 1  2  3  4  5  17  18  19  20  21  22  23  24  25 0
 3-21G
 ****
 27  28  29  34  36  39  40  41  42  43  44  45  46 0
 3-21G
 ****


