%nproc=1
%NoSave
%Mem=1900MB
#P OB98/GEN NMR

erre ene a

0 1
  C     -899.422    -717.192    -333.869
  O     -898.032    -717.443    -334.088
  P     -897.482    -717.551    -335.582
  C     -894.912    -717.187    -335.628
  O     -896.202    -716.593    -335.766
  C     -894.212    -716.662    -334.385
  O     -894.942    -716.971    -333.175
  C     -892.842    -717.280    -334.165
  O     -891.802    -716.937    -335.074
  C     -892.582    -717.001    -332.689
  O     -892.072    -715.671    -332.501
  C     -894.012    -717.114    -332.077
  N     -894.212    -718.363    -331.361
  C     -893.602    -718.459    -330.115
  O     -892.862    -717.589    -329.678
  N     -893.812    -719.619    -329.451
  C     -894.542    -720.695    -329.874
  O     -894.682    -721.731    -329.231
  C     -895.142    -720.547    -331.215
  C     -894.972    -719.402    -331.888
  O     -898.502    -717.469    -336.666
  O     -896.802    -719.017    -335.590
  H     -892.652    -715.066    -333.024
  H     -897.012    -719.428    -336.450
  H     -893.372    -719.711    -328.531
  H     -895.742    -721.385    -331.587
  H     -895.402    -719.263    -332.866
  H     -894.202    -716.292    -331.394
  H     -891.862    -717.691    -332.253
  H     -892.932    -718.375    -334.237
  H     -894.132    -715.566    -334.459
  H     -894.312    -716.979    -336.520
  H     -895.032    -718.284    -335.586
  P     -891.582    -717.701    -336.461
  C     -891.332    -715.942    -338.360
  O     -892.202    -716.810    -337.658
  O     -891.872    -719.179    -336.494
  O     -890.012    -717.501    -336.698
  H     -889.642    -718.286    -337.156
  H     -891.942    -715.409    -339.105
  H     -890.562    -716.506    -338.881
  H     -890.892    -715.209    -337.694
  H     -899.616    -717.151    -332.817
  H     -900.000    -717.979    -334.307
  H     -899.691    -716.259    -334.318

 3  4  5  6  7  8  9  10  11  12  13  23  28  29  30  31  32 0
 6-311+G(2d,p)
 ****
 33  34 0
 6-311+G(2d,p)
 ****
 1  2  14  15  16  17  18  19  20  21  22  24  25  26  27 0
 3-21G
 ****
 35  36  37  38  39  40  41  42  43  44  45 0
 3-21G
 ****


