%nproc=1
%NoSave
%Mem=1900MB
#P OB98/GEN NMR

erre ene a

0 1
  C     -612.763    -108.794    -615.074
  O     -613.322    -109.275    -616.279
  H     -613.154    -109.399    -614.244
  H     -613.058    -107.753    -614.910
  H     -611.674    -108.885    -615.088
  P     -612.781    -108.683    -617.670
  C     -611.946    -110.962    -618.565
  O     -612.856    -109.876    -618.742
  C     -612.608    -112.290    -618.950
  O     -613.514    -112.688    -617.865
  C     -613.462    -112.235    -620.241
  O     -613.407    -113.543    -620.833
  C     -614.837    -111.937    -619.676
  O     -615.861    -112.089    -620.620
  C     -614.821    -112.888    -618.464
  N     -615.880    -112.664    -617.486
  C     -617.103    -113.305    -617.695
  O     -617.345    -114.046    -618.658
  N     -618.078    -113.058    -616.754
  C     -617.944    -112.275    -615.653
  O     -618.826    -112.123    -614.827
  C     -616.628    -111.622    -615.478
  C     -615.673    -111.858    -616.384
  O     -611.471    -107.972    -617.604
  O     -613.964    -107.710    -618.151
  H     -613.715    -106.785    -617.963
  H     -615.922    -113.029    -620.880
  H     -618.956    -113.527    -616.894
  H     -616.503    -110.979    -614.624
  H     -614.700    -111.387    -616.292
  H     -614.862    -113.917    -618.818
  H     -614.888    -110.887    -619.347
  H     -613.086    -111.495    -620.956
  H     -611.833    -113.065    -619.010
  H     -611.641    -110.994    -617.513
  H     -611.059    -110.794    -619.191
  P     -614.134    -113.917    -622.219
  C     -612.173    -115.194    -623.332
  O     -613.478    -115.286    -622.775
  O     -614.138    -112.806    -623.222
  O     -615.629    -114.329    -621.815
  H     -616.224    -114.174    -622.567
  H     -611.856    -116.162    -623.660
  H     -611.494    -114.829    -622.590
  H     -612.187    -114.522    -624.164

 6  7  8  9  10  11  12  13  14  15  16  27  31  32  33  34  35 0
 6-311+G(2d,p)
 ****
 36  37 0
 6-311+G(2d,p)
 ****
 1  2  3  4  5  17  18  19  20  21  22  23  24  25 0
 3-21G
 ****
 26  28  29  30  38  39  40  41  42  43  44  45 0
 3-21G
 ****


