%nproc=1
%NoSave
%Mem=1900MB
#P OB98/GEN NMR

erre ene a

0 1
  C      368.155     658.051     522.721
  O      368.982     658.348     521.601
  P      369.690     657.248     520.684
  C      368.809     655.218     519.271
  O      368.548     656.483     519.859
  C      368.050     654.985     517.952
  O      366.610     655.102     518.197
  C      368.397     656.075     516.930
  O      369.552     655.939     516.127
  C      367.117     656.268     516.131
  O      367.081     655.486     514.938
  C      366.020     655.812     517.093
  N      361.642     658.444     516.754
  C      362.096     657.401     515.976
  N      361.297     657.025     514.936
  N      363.220     656.774     516.179
  C      363.953     657.300     517.196
  C      363.616     658.345     518.026
  C      362.342     658.987     517.820
  O      361.876     659.914     518.490
  N      364.613     658.603     518.921
  C      365.566     657.746     518.627
  N      365.208     656.921     517.589
  O      370.705     656.399     521.363
  O      370.450     658.124     519.564
  H      367.900     655.650     514.446
  H      371.260     657.627     519.320
  H      360.738     658.868     516.564
  H      366.522     657.655     519.135
  H      365.336     655.112     516.609
  H      367.021     657.318     515.808
  H      360.485     657.541     514.656
  H      368.535     657.007     517.491
  H      361.735     656.417     514.248
  H      368.207     653.980     517.581
  H      368.539     654.467     520.011
  H      369.883     655.107     519.083
  P      370.342     657.150     515.417
  C      372.019     658.973     516.070
  O      371.303     657.828     516.503
  O      369.223     658.258     515.181
  O      371.008     656.790     514.114
  H      369.523     658.920     514.526
  H      372.852     659.149     516.780
  H      371.363     659.847     516.052
  H      372.439     658.816     515.067
  H      367.807     658.963     523.160
  H      368.719     657.499     523.444
  H      367.317     657.467     522.401

 3  4  5  6  7  8  9  10  11  12  23  26  30  31 0
 6-311+G(2d,p)
 ****
 33  35  36  37  38 0
 6-311+G(2d,p)
 ****
 1  2  13  14  15  16  17  18  19  20  21  22  24  25 0
 3-21G
 ****
 27  28  29  32  34  39  40  41  42  43  44  45  46  47  48  49 0
 3-21G
 ****


