%nproc=1
%NoSave
%Mem=1900MB
#P OB98/GEN NMR

erre ene a

0 1
  C       21.295    -170.508    -127.498
  O       21.709    -169.909    -128.723
  P       22.384    -168.455    -128.683
  C       20.291    -167.002    -129.083
  O       21.289    -167.408    -128.149
  C       19.296    -166.041    -128.427
  O       18.331    -166.742    -127.620
  C       19.960    -165.043    -127.489
  O       20.643    -164.037    -128.217
  C       18.762    -164.563    -126.678
  O       18.042    -163.540    -127.383
  C       17.902    -165.842    -126.575
  N       17.974    -166.479    -125.269
  C       17.166    -165.924    -124.270
  O       16.474    -164.933    -124.510
  N       17.170    -166.501    -123.025
  C       17.923    -167.533    -122.789
  N       17.883    -168.066    -121.542
  C       18.802    -168.139    -123.813
  C       18.785    -167.564    -125.010
  O       23.112    -168.044    -129.918
  O       23.392    -168.570    -127.436
  H       17.406    -163.170    -126.742
  H       24.155    -167.980    -127.590
  H       19.406    -169.003    -123.572
  H       19.401    -167.939    -125.820
  H       16.851    -165.612    -126.778
  H       19.072    -164.137    -125.715
  H       20.663    -165.566    -126.831
  H       18.768    -165.504    -129.227
  H       17.285    -167.625    -120.856
  H       19.766    -167.887    -129.456
  H       18.397    -168.896    -121.276
  H       20.784    -166.537    -129.944
  P       22.186    -164.293    -128.560
  C       22.998    -163.849    -126.136
  O       22.917    -164.758    -127.221
  O       22.748    -162.805    -128.789
  O       22.429    -165.151    -129.760
  H       23.441    -162.823    -129.476
  H       23.229    -164.403    -125.228
  H       22.057    -163.314    -125.996
  H       23.805    -163.133    -126.323
  H       20.868    -171.469    -127.697
  H       20.565    -169.885    -127.025
  H       22.141    -170.621    -126.852

 3  4  5  6  7  8  9  10  11  12  13  23  27  28  29  30  32 0
 6-311+G(2d,p)
 ****
 34  35 0
 6-311+G(2d,p)
 ****
 1  2  14  15  16  17  18  19  20  21  22  24  25  26 0
 3-21G
 ****
 31  33  36  37  38  39  40  41  42  43  44  45  46 0
 3-21G
 ****


