%nproc=1
%NoSave
%Mem=1900MB
#P OB98/GEN NMR

erre ene a

0 1
  C     -349.810     326.739    -323.559
  O     -349.212     326.106    -322.446
  H     -349.383     326.317    -324.474
  H     -349.598     327.809    -323.537
  H     -350.891     326.574    -323.571
  P     -349.843     326.341    -320.991
  C     -348.047     328.001    -320.176
  O     -348.624     326.715    -320.017
  C     -346.520     327.928    -320.074
  O     -346.164     327.548    -318.708
  C     -345.878     326.890    -321.021
  O     -344.586     327.393    -321.389
  C     -345.753     325.695    -320.095
  O     -344.904     324.709    -320.628
  C     -345.302     326.396    -318.813
  N     -345.389     325.557    -317.625
  C     -344.193     325.106    -317.073
  O     -343.084     325.392    -317.513
  N     -344.315     324.289    -315.981
  C     -345.487     323.885    -315.407
  O     -345.541     323.169    -314.416
  C     -346.717     324.369    -316.055
  C     -346.613     325.174    -317.117
  O     -350.741     325.261    -320.491
  O     -350.622     327.737    -321.139
  H     -351.568     327.562    -321.300
  H     -344.044     325.105    -320.888
  H     -343.460     323.952    -315.565
  H     -347.664     324.053    -315.637
  H     -347.498     325.548    -317.622
  H     -344.277     326.770    -318.914
  H     -346.731     325.222    -319.954
  H     -346.472     326.706    -321.917
  H     -346.102     328.928    -320.244
  H     -348.438     328.653    -319.388
  H     -348.335     328.410    -321.151
  P     -344.180     327.751    -322.902
  C     -342.041     326.331    -323.132
  O     -342.586     327.640    -323.064
  O     -344.736     329.056    -323.377
  O     -344.743     326.545    -323.793
  H     -345.046     326.896    -324.649
  H     -340.978     326.392    -323.239
  H     -342.455     325.816    -323.973
  H     -342.279     325.798    -322.235

 6  7  8  9  10  11  12  13  14  15  16  27  31  32  33  34  35 0
 6-311+G(2d,p)
 ****
 36  37 0
 6-311+G(2d,p)
 ****
 1  2  3  4  5  17  18  19  20  21  22  23  24  25 0
 3-21G
 ****
 26  28  29  30  38  39  40  41  42  43  44  45 0
 3-21G
 ****


