%nproc=1
%NoSave
%Mem=1900MB
#P OB98/GEN NMR

erre ene a

0 1
  C      149.650     758.476     329.088
  O      150.301     759.059     327.977
  H      150.409     758.139     329.800
  H      149.058     757.614     328.772
  H      149.009     759.214     329.576
  P      149.372     759.532     326.760
  C      148.646     757.180     325.916
  O      149.408     758.357     325.666
  C      148.369     756.467     324.597
  O      147.610     757.336     323.720
  C      149.621     756.097     323.812
  O      150.254     754.929     324.311
  C      149.043     755.894     322.424
  O      148.508     754.569     322.258
  C      147.925     756.952     322.364
  N      148.310     758.100     321.549
  C      147.813     758.110     320.248
  O      147.091     757.224     319.796
  N      148.205     759.159     319.467
  C      149.063     760.151     319.829
  O      149.419     761.036     319.060
  C      149.577     760.081     321.207
  C      149.181     759.072     321.995
  O      150.224     760.706     326.083
  O      148.004     759.982     327.149
  H      149.819     761.568     326.296
  H      149.281     753.972     322.218
  H      147.848     759.186     318.521
  H      150.266     760.852     321.527
  H      149.556     758.992     323.010
  H      147.010     756.522     321.940
  H      149.802     756.031     321.660
  H      150.313     756.944     323.788
  H      147.764     755.574     324.803
  H      147.694     757.449     326.381
  H      149.204     756.534     326.601
  P      151.842     754.983     324.536
  C      152.419     754.182     322.102
  O      152.469     753.943     323.499
  O      151.954     754.264     325.961
  O      152.393     756.369     324.490
  H      151.221     753.637     326.112
  H      152.890     753.373     321.585
  H      152.930     755.095     321.878
  H      151.399     754.259     321.790

 6  7  8  9  10  11  12  13  14  15  16  27  31  32  33  34  35 0
 6-311+G(2d,p)
 ****
 36  37 0
 6-311+G(2d,p)
 ****
 1  2  3  4  5  17  18  19  20  21  22  23  24  25 0
 3-21G
 ****
 26  28  29  30  38  39  40  41  42  43  44  45 0
 3-21G
 ****


