%nproc=1
%NoSave
%Mem=1900MB
#P OB98/GEN NMR

erre ene a

0 1
  C      587.354    -421.113      20.948
  O      586.836    -421.772      22.088
  P      585.987    -420.981      23.195
  C      583.711    -421.769      22.284
  O      584.634    -421.833      23.362
  C      582.436    -422.524      22.633
  O      582.703    -423.944      22.551
  C      581.900    -422.306      24.047
  O      581.085    -421.138      24.194
  C      581.035    -423.545      24.227
  O      579.781    -423.367      23.542
  C      581.875    -424.619      23.536
  N      582.828    -429.208      25.598
  C      581.936    -428.796      24.661
  N      581.735    -427.556      24.177
  C      582.589    -426.684      24.733
  C      583.566    -426.957      25.681
  C      583.669    -428.275      26.127
  N      584.592    -428.698      27.059
  N      584.248    -425.801      26.014
  C      583.708    -424.863      25.261
  N      582.713    -425.351      24.463
  O      585.807    -419.528      22.911
  O      586.764    -421.262      24.565
  H      579.394    -422.529      23.870
  H      586.485    -420.620      25.243
  H      581.299    -429.575      24.243
  H      584.000    -423.826      25.271
  H      581.258    -425.345      22.990
  H      580.803    -423.749      25.276
  H      582.708    -422.309      24.797
  H      581.669    -422.281      21.886
  H      584.175    -422.239      21.409
  H      584.680    -429.698      27.213
  H      585.318    -428.054      27.324
  H      583.498    -420.729      22.046
  P      580.776    -420.649      25.695
  C      582.774    -419.002      26.100
  O      581.406    -419.175      25.805
  O      581.199    -421.594      26.761
  O      579.199    -420.376      25.662
  H      578.915    -419.630      25.096
  H      583.032    -417.948      25.965
  H      583.401    -419.599      25.440
  H      582.968    -419.276      27.144
  H      587.885    -421.816      20.340
  H      588.020    -420.335      21.258
  H      586.549    -420.690      20.384

 3  4  5  6  7  8  9  10  11  12  22  25  29  30  31  32 0
 6-311+G(2d,p)
 ****
 33  36  37 0
 6-311+G(2d,p)
 ****
 1  2  13  14  15  16  17  18  19  20  21  23  24  26 0
 3-21G
 ****
 27  28  34  35  38  39  40  41  42  43  44  45  46  47  48 0
 3-21G
 ****


