%nproc=1
%NoSave
%Mem=1900MB
#P OB98/GEN NMR

erre ene a

0 1
  C       61.771    -157.228     271.527
  O       62.429    -158.480     271.542
  H       62.296    -156.567     270.830
  H       61.799    -156.780     272.523
  H       60.735    -157.332     271.195
  P       61.717    -159.718     272.269
  C       60.308    -160.456     270.237
  O       61.370    -160.786     271.122
  C       60.298    -161.396     269.029
  O       61.508    -161.157     268.245
  C       60.281    -162.894     269.398
  O       59.553    -163.580     268.369
  C       61.760    -163.227     269.336
  O       61.986    -164.613     269.323
  C       62.153    -162.438     268.084
  N       63.594    -162.291     267.916
  C       64.243    -163.225     267.114
  O       63.669    -164.142     266.529
  N       65.601    -163.076     267.009
  C       66.352    -162.114     267.619
  O       67.564    -162.015     267.473
  C       65.613    -161.174     268.478
  C       64.289    -161.303     268.584
  O       60.583    -159.375     273.175
  O       62.913    -160.426     273.065
  H       62.904    -160.135     273.996
  H       62.948    -164.803     269.335
  H       66.087    -163.745     266.431
  H       66.183    -160.413     268.991
  H       63.710    -160.629     269.209
  H       61.731    -162.900     267.186
  H       62.273    -162.835     270.218
  H       59.816    -163.090     270.369
  H       59.448    -161.140     268.385
  H       60.449    -159.424     269.902
  H       59.355    -160.529     270.775
  P       58.193    -164.386     268.641
  C       56.606    -162.531     267.809
  O       57.056    -163.867     267.631
  O       57.763    -164.373     270.072
  O       58.480    -165.885     268.155
  H       58.011    -166.510     268.742
  H       55.855    -162.308     267.081
  H       57.430    -161.858     267.690
  H       56.195    -162.421     268.791

 6  7  8  9  10  11  12  13  14  15  16  27  31  32  33  34  35 0
 6-311+G(2d,p)
 ****
 36  37 0
 6-311+G(2d,p)
 ****
 1  2  3  4  5  17  18  19  20  21  22  23  24  25 0
 3-21G
 ****
 26  28  29  30  38  39  40  41  42  43  44  45 0
 3-21G
 ****


