%nproc=1
%NoSave
%Mem=1900MB
#P OB98/GEN NMR

erre ene a

0 1
  C       28.427      43.002     -78.252
  O       27.210      43.647     -77.949
  H       28.206      42.073     -78.783
  H       28.954      42.760     -77.325
  H       29.064      43.626     -78.884
  P       27.234      45.203     -77.580
  C       28.753      45.088     -75.497
  O       27.442      45.326     -75.992
  C       28.764      44.021     -74.401
  O       30.090      43.893     -73.843
  C       27.846      44.381     -73.232
  O       26.484      44.036     -73.402
  C       28.473      43.586     -72.089
  O       27.976      42.237     -72.071
  C       29.962      43.606     -72.439
  N       33.276      44.441     -68.642
  C       32.714      43.251     -69.059
  N       33.030      42.155     -68.334
  N       31.903      43.155     -70.079
  C       31.601      44.345     -70.648
  C       32.085      45.591     -70.313
  C       33.027      45.679     -69.216
  O       33.548      46.710     -68.802
  N       31.555      46.569     -71.120
  C       30.698      45.927     -71.887
  N       30.710      44.572     -71.656
  O       25.707      45.659     -77.764
  O       28.152      46.045     -78.413
  H       28.385      41.770     -71.321
  H       25.667      46.609     -77.972
  H       33.916      44.452     -67.868
  H       30.068      46.388     -72.640
  H       30.427      42.626     -72.271
  H       28.234      44.023     -71.115
  H       33.556      42.198     -67.475
  H       27.930      45.446     -72.995
  H       32.441      41.327     -68.439
  H       28.502      43.051     -74.838
  H       29.116      46.037     -75.098
  H       29.421      44.803     -76.315
  P       25.347      45.146     -73.211
  C       24.520      44.155     -70.951
  O       24.211      44.497     -72.284
  O       24.668      45.210     -74.658
  O       25.839      46.481     -72.769
  H       25.046      45.946     -75.176
  H       23.655      43.738     -70.480
  H       24.827      45.032     -70.420
  H       25.313      43.436     -70.942

 6  7  8  9  10  11  12  13  14  15  26  29  33  34 0
 6-311+G(2d,p)
 ****
 36  38  39  40  41 0
 6-311+G(2d,p)
 ****
 1  2  3  4  5  16  17  18  19  20  21  22  23  24  25 0
 3-21G
 ****
 27  28  30  31  32  35  37  42  43  44  45  46  47 0
 3-21G
 ****
 48  49 0
 3-21G
 ****


