%nproc=1
%NoSave
%Mem=1900MB
#P OB98/GEN NMR

erre ene a

0 1
  C     1104.833    -430.463     663.554
  O     1104.879    -431.667     664.309
  H     1105.483    -430.587     662.662
  H     1105.225    -429.636     664.143
  H     1103.822    -430.268     663.226
  P     1104.024    -431.680     665.674
  C     1101.991    -432.425     664.233
  O     1102.765    -432.655     665.408
  C     1101.205    -433.677     663.854
  O     1102.114    -434.705     663.337
  C     1100.432    -434.321     664.999
  O     1099.185    -433.673     665.196
  C     1100.278    -435.762     664.501
  O     1099.204    -435.869     663.562
  C     1101.636    -436.004     663.820
  N     1102.775    -440.110     666.554
  C     1101.686    -439.824     665.764
  N     1100.725    -440.789     665.708
  N     1101.522    -438.732     665.069
  C     1102.559    -437.881     665.201
  C     1103.708    -438.020     665.989
  C     1103.869    -439.247     666.721
  O     1104.842    -439.568     667.370
  N     1104.523    -436.922     665.878
  C     1103.851    -436.075     665.082
  N     1102.631    -436.602     664.693
  O     1103.352    -430.213     665.698
  O     1104.802    -431.954     666.910
  H     1099.278    -435.149     662.936
  H     1103.238    -429.941     666.627
  H     1102.823    -440.968     667.046
  H     1104.196    -435.093     664.788
  H     1101.531    -436.661     662.940
  H     1100.093    -436.443     665.334
  H     1100.621    -441.460     666.471
  H     1101.027    -434.305     665.930
  H     1099.892    -440.583     665.141
  H     1100.519    -433.426     663.031
  H     1102.663    -432.153     663.401
  H     1101.304    -431.590     664.405
  P     1098.472    -433.863     666.628
  C     1099.236    -431.688     667.847
  O     1098.167    -432.405     667.195
  O     1099.651    -434.399     667.570
  O     1097.306    -434.797     666.616
  H     1099.281    -434.800     668.389
  H     1098.879    -430.733     668.171
  H     1100.045    -431.553     667.160
  H     1099.576    -432.247     668.694

 6  7  8  9  10  11  12  13  14  15  26  29  33  34 0
 6-311+G(2d,p)
 ****
 36  38  39  40  41 0
 6-311+G(2d,p)
 ****
 1  2  3  4  5  16  17  18  19  20  21  22  23  24  25 0
 3-21G
 ****
 27  28  30  31  32  35  37  42  43  44  45  46  47 0
 3-21G
 ****
 48  49 0
 3-21G
 ****


