%nproc=1
%NoSave
%Mem=1900MB
#P OB98/GEN NMR

erre ene a

0 1
  C     -528.755    -572.474     -64.626
  O     -527.678    -572.208     -63.746
  H     -529.214    -573.424     -64.346
  H     -528.388    -572.550     -65.657
  H     -529.505    -571.684     -64.555
  P     -526.832    -570.875     -64.038
  C     -528.578    -569.543     -62.657
  O     -527.854    -569.646     -63.875
  C     -528.119    -568.323     -61.866
  O     -528.412    -567.103     -62.584
  C     -528.761    -568.187     -60.491
  O     -528.078    -568.980     -59.529
  C     -528.603    -566.693     -60.232
  O     -527.266    -566.382     -59.784
  C     -528.857    -566.104     -61.627
  N     -532.648    -563.039     -60.294
  C     -531.387    -563.184     -59.752
  N     -531.097    -562.419     -58.679
  N     -530.488    -564.019     -60.216
  C     -530.932    -564.755     -61.254
  C     -532.159    -564.711     -61.881
  C     -533.127    -563.749     -61.392
  O     -534.229    -563.516     -61.882
  N     -532.228    -565.611     -62.917
  C     -531.056    -566.226     -62.890
  N     -530.241    -565.743     -61.900
  O     -526.575    -570.933     -65.618
  O     -525.548    -570.753     -63.289
  H     -526.646    -566.508     -60.526
  H     -525.677    -570.596     -65.804
  H     -533.287    -562.361     -59.921
  H     -530.748    -567.011     -63.574
  H     -528.258    -565.198     -61.807
  H     -529.283    -566.345     -59.450
  H     -531.822    -561.991     -58.112
  H     -529.829    -568.438     -60.524
  H     -530.196    -562.573     -58.240
  H     -527.024    -568.384     -61.775
  H     -528.402    -570.449     -62.063
  H     -529.648    -569.460     -62.876
  P     -528.904    -569.512     -58.263
  C     -529.554    -571.738     -59.439
  O     -530.002    -570.558     -58.786
  O     -529.776    -568.230     -57.839
  O     -528.060    -569.986     -57.125
  H     -529.399    -567.822     -57.032
  H     -530.398    -572.329     -59.726
  H     -528.934    -572.301     -58.773
  H     -528.992    -571.472     -60.310

 6  7  8  9  10  11  12  13  14  15  26  29  33  34 0
 6-311+G(2d,p)
 ****
 36  38  39  40  41 0
 6-311+G(2d,p)
 ****
 1  2  3  4  5  16  17  18  19  20  21  22  23  24  25 0
 3-21G
 ****
 27  28  30  31  32  35  37  42  43  44  45  46  47 0
 3-21G
 ****
 48  49 0
 3-21G
 ****


