%nproc=1
%NoSave
%Mem=1900MB
#P OB98/GEN NMR

erre ene a

0 1
  C      -77.626       5.395     149.894
  O      -77.967       5.986     148.656
  H      -77.756       4.313     149.814
  H      -78.282       5.771     150.683
  H      -76.583       5.609     150.143
  P      -77.803       7.578     148.548
  C      -78.945       9.625     149.674
  O      -78.829       8.209     149.608
  C      -79.564      10.030     151.008
  O      -78.524      10.147     152.005
  C      -80.267      11.383     150.988
  O      -81.558      11.302     150.413
  C      -80.282      11.732     152.470
  O      -81.381      11.108     153.146
  C      -78.957      11.136     152.966
  N      -77.092      14.631     156.173
  C      -78.082      13.721     156.304
  N      -78.506      12.809     155.404
  C      -77.785      12.891     154.273
  C      -76.753      13.770     153.992
  C      -76.403      14.674     155.007
  N      -75.420      15.624     154.861
  N      -76.292      13.578     152.704
  C      -77.024      12.595     152.222
  N      -77.934      12.147     153.135
  O      -78.471       7.910     147.130
  O      -76.401       8.082     148.639
  H      -81.318      11.371     154.085
  H      -77.779       7.945     146.443
  H      -78.605      13.730     157.256
  H      -76.939      12.184     151.223
  H      -79.070      10.623     153.929
  H      -80.374      12.807     152.625
  H      -79.652      12.122     150.458
  H      -80.254       9.239     151.327
  H      -79.587       9.973     148.858
  H      -77.951      10.068     149.560
  H      -75.239      16.256     155.624
  H      -74.976      15.734     153.960
  P      -82.411      12.648     150.254
  C      -83.766      14.151     151.887
  O      -82.721      13.205     151.726
  O      -83.832      12.123     149.739
  O      -81.818      13.655     149.325
  H      -83.910      12.242     148.775
  H      -83.846      14.422     152.919
  H      -84.689      13.722     151.558
  H      -83.551      15.023     151.305

 6  7  8  9  10  11  12  13  14  15  25  28  32  33  34  35 0
 6-311+G(2d,p)
 ****
 36  37  40 0
 6-311+G(2d,p)
 ****
 1  2  3  4  5  16  17  18  19  20  21  22  23  24 0
 3-21G
 ****
 26  27  29  30  31  38  39 41  42  43  44  45  46  47  48 0
 3-21G
 ****


