%nproc=1
%NoSave
%Mem=1900MB
#P OB98/GEN NMR

erre ene a

0 1
  C      -13.903    -275.907     279.981
  O      -12.615    -276.115     279.434
  P      -12.133    -277.586     279.014
  C      -11.288    -276.664     276.758
  O      -12.147    -277.600     277.407
  C      -12.079    -275.780     275.791
  O      -13.119    -275.068     276.492
  C      -11.241    -274.713     275.098
  O      -10.481    -275.282     274.050
  C      -12.325    -273.742     274.641
  O      -12.926    -274.180     273.410
  C      -13.342    -273.821     275.802
  N      -13.241    -272.677     276.702
  C      -14.412    -271.934     276.875
  O      -15.442    -272.232     276.266
  N      -14.385    -270.833     277.702
  C      -13.268    -270.495     278.276
  N      -13.295    -269.389     279.075
  C      -12.002    -271.236     278.099
  C      -12.062    -272.303     277.304
  O      -12.869    -278.710     279.669
  O      -10.569    -277.560     279.357
  H      -13.095    -275.140     273.514
  H      -10.415    -277.616     280.337
  H      -11.103    -270.908     278.590
  H      -11.180    -272.903     277.110
  H      -14.364    -273.860     275.413
  H      -11.926    -272.739     274.463
  H      -10.591    -274.220     275.828
  H      -12.557    -276.440     275.050
  H      -14.171    -268.894     279.154
  H      -10.530    -277.221     276.200
  H      -12.482    -269.025     279.545
  H      -10.780    -276.054     277.518
  P       -8.937    -275.639     274.293
  C       -9.240    -278.045     275.139
  O       -8.860    -276.723     275.472
  O       -8.023    -274.467     274.441
  O       -8.546    -276.499     272.991
  H       -7.678    -276.195     272.661
  H       -8.841    -278.724     275.891
  H       -8.858    -278.332     274.157
  H      -10.338    -278.118     275.140
  H      -14.036    -274.867     280.195
  H      -14.003    -276.472     280.884
  H      -14.645    -276.224     279.278

 3  4  5  6  7  8  9  10  11  12  13  23  27  28  29  30  32 0
 6-311+G(2d,p)
 ****
 34  35 0
 6-311+G(2d,p)
 ****
 1  2  14  15  16  17  18  19  20  21  22  24  25  26 0
 3-21G
 ****
 31  33  36  37  38  39  40  41  42  43  44  45  46 0
 3-21G
 ****


