%nproc=1
%NoSave
%Mem=1900MB
#P OB98/GEN NMR

erre ene a

0 1
  C     -240.631    -314.950      27.198
  O     -240.376    -313.756      26.457
  P     -239.537    -312.507      26.989
  C     -240.084    -310.104      27.916
  O     -240.557    -311.358      27.434
  C     -241.205    -309.052      27.909
  O     -241.658    -308.868      26.528
  C     -242.424    -309.483      28.733
  O     -242.978    -308.429      29.517
  C     -243.327    -310.125      27.689
  O     -244.686    -310.210      28.099
  C     -243.046    -309.269      26.455
  N     -246.167    -309.854      22.452
  C     -246.348    -309.117      23.609
  N     -247.530    -308.467      23.728
  N     -245.472    -309.050      24.572
  C     -244.376    -309.811      24.363
  C     -244.083    -310.592      23.263
  C     -245.042    -310.625      22.182
  O     -244.918    -311.241      21.130
  N     -242.866    -311.216      23.405
  C     -242.433    -310.830      24.591
  N     -243.315    -309.966      25.212
  O     -238.382    -312.089      26.139
  O     -238.939    -313.025      28.398
  H     -244.973    -309.312      28.369
  H     -238.076    -312.576      28.508
  H     -246.869    -309.855      21.732
  H     -241.495    -311.121      25.039
  H     -243.664    -308.367      26.432
  H     -242.975    -311.154      27.534
  H     -248.301    -308.578      23.081
  H     -242.143    -310.239      29.479
  H     -247.750    -308.114      24.661
  H     -240.791    -308.099      28.260
  H     -239.281    -309.802      27.234
  H     -239.650    -310.215      28.909
  P     -243.364    -308.437      31.070
  C     -245.399    -308.970      32.528
  O     -244.830    -309.048      31.235
  O     -243.574    -306.892      31.445
  O     -242.323    -309.053      31.962
  H     -242.920    -306.627      32.131
  H     -246.267    -309.646      32.577
  H     -245.741    -307.950      32.716
  H     -244.679    -309.267      33.295
  H     -241.216    -315.620      26.604
  H     -241.165    -314.707      28.093
  H     -239.703    -315.417      27.452

 3  4  5  6  7  8  9  10  11  12  23  26  30  31 0
 6-311+G(2d,p)
 ****
 33  35  36  37  38 0
 6-311+G(2d,p)
 ****
 1  2  13  14  15  16  17  18  19  20  21  22  24  25 0
 3-21G
 ****
 27  28  29  32  34  39  40  41  42  43  44  45  46  47  48  49 0
 3-21G
 ****


