%nproc=1
%NoSave
%Mem=1900MB
#P OB98/GEN NMR

erre ene a

0 1
  C       56.311    -162.018     118.741
  O       57.485    -162.453     118.052
  P       58.861    -162.599     118.856
  C       60.086    -164.702     117.981
  O       59.958    -163.286     117.911
  C       61.525    -165.114     117.658
  O       61.948    -164.601     116.372
  C       62.538    -164.555     118.649
  O       62.511    -165.088     119.956
  C       63.841    -164.670     117.878
  O       64.395    -165.982     117.973
  C       63.373    -164.382     116.431
  N       63.723    -163.034     115.983
  C       64.663    -162.954     114.962
  O       65.218    -163.937     114.475
  N       64.976    -161.691     114.537
  C       64.479    -160.527     115.046
  O       64.811    -159.421     114.644
  C       63.507    -160.675     116.141
  C       63.178    -161.901     116.553
  O       58.752    -163.174     120.228
  O       59.384    -161.079     118.934
  H       64.507    -166.183     118.922
  H       59.756    -160.938     119.826
  H       65.651    -161.614     113.791
  H       63.094    -159.773     116.573
  H       62.463    -162.032     117.358
  H       63.830    -165.094     115.733
  H       64.597    -163.976     118.257
  H       62.335    -163.481     118.765
  H       61.572    -166.204     117.609
  H       59.392    -165.171     117.282
  H       59.791    -165.036     118.981
  P       61.995    -164.264     121.231
  C       61.690    -166.455     122.584
  O       62.237    -165.155     122.541
  O       60.681    -163.567     121.111
  O       63.149    -163.153     121.376
  H       62.745    -162.334     121.719
  H       61.938    -166.905     123.549
  H       62.113    -167.074     121.790
  H       60.602    -166.414     122.486
  H       55.490    -161.977     118.056
  H       56.480    -161.045     119.154
  H       56.084    -162.706     119.529

 3  4  5  6  7  8  9  10  11  12  13  23  28  29  30  31  32 0
 6-311+G(2d,p)
 ****
 33  34 0
 6-311+G(2d,p)
 ****
 1  2  14  15  16  17  18  19  20  21  22  24  25  26  27 0
 3-21G
 ****
 35  36  37  38  39  40  41  42  43  44  45 0
 3-21G
 ****


