%nproc=1
%NoSave
%Mem=1900MB
#P OB98/GEN NMR

erre ene a

0 1
  C      423.086    -240.143    -123.790
  O      424.230    -239.528    -123.238
  P      425.610    -239.374    -124.030
  C      427.183    -241.034    -125.256
  O      426.268    -240.832    -124.192
  C      427.665    -242.491    -125.375
  O      426.533    -243.346    -125.633
  C      428.606    -242.645    -126.574
  O      429.976    -242.326    -126.443
  C      428.323    -244.033    -127.126
  O      429.265    -245.011    -126.676
  C      426.922    -244.354    -126.581
  N      425.274    -246.873    -130.663
  C      426.211    -247.259    -129.718
  N      426.916    -248.376    -130.011
  N      426.433    -246.602    -128.608
  C      425.712    -245.456    -128.503
  C      424.752    -244.981    -129.368
  C      424.485    -245.736    -130.570
  O      423.733    -245.379    -131.472
  N      424.286    -243.749    -128.977
  C      424.986    -243.465    -127.898
  N      425.898    -244.455    -127.598
  O      426.490    -238.234    -123.626
  O      425.082    -239.068    -125.527
  H      430.165    -244.668    -126.866
  H      425.721    -238.456    -125.946
  H      425.200    -247.375    -131.540
  H      424.905    -242.547    -127.322
  H      426.930    -245.309    -126.037
  H      428.374    -244.035    -128.219
  H      426.876    -248.817    -130.913
  H      428.247    -241.953    -127.349
  H      427.715    -248.587    -129.428
  H      428.093    -242.843    -124.431
  H      428.038    -240.364    -125.090
  H      426.727    -240.732    -126.204
  P      431.081    -242.386    -127.607
  C      431.573    -244.104    -129.433
  O      431.243    -243.908    -128.073
  O      432.463    -242.093    -126.854
  O      430.875    -241.402    -128.720
  H      433.129    -241.764    -127.492
  H      431.362    -245.142    -129.708
  H      432.638    -243.907    -129.590
  H      430.981    -243.440    -130.082
  H      422.291    -240.127    -123.074
  H      423.314    -241.156    -124.046
  H      422.785    -239.612    -124.669

 3  4  5  6  7  8  9  10  11  12  23  26  30  31 0
 6-311+G(2d,p)
 ****
 33  35  36  37  38 0
 6-311+G(2d,p)
 ****
 1  2  13  14  15  16  17  18  19  20  21  22  24  25 0
 3-21G
 ****
 27  28  29  32  34  39  40  41  42  43  44  45  46  47  48  49 0
 3-21G
 ****


