%nproc=1
%NoSave
%Mem=1900MB
#P OB98/GEN NMR

erre ene a

0 1
  C     -299.881    -220.489     154.113
  O     -300.151    -219.208     153.570
  H     -299.655    -221.179     153.293
  H     -300.762    -220.860     154.651
  H     -299.022    -220.442     154.785
  P     -300.493    -218.047     154.621
  C     -302.247    -217.880     156.545
  O     -301.887    -218.461     155.300
  C     -303.775    -217.898     156.721
  O     -304.356    -216.890     155.839
  C     -304.423    -219.244     156.350
  O     -305.620    -219.386     157.140
  C     -304.802    -219.015     154.895
  O     -305.708    -219.997     154.447
  C     -305.307    -217.572     154.988
  N     -308.492    -216.130     151.257
  C     -308.712    -216.723     152.446
  N     -307.815    -217.068     153.391
  C     -306.574    -216.720     153.020
  C     -306.191    -216.098     151.843
  C     -307.215    -215.803     150.927
  N     -306.989    -215.202     149.705
  N     -304.823    -215.895     151.816
  C     -304.387    -216.385     152.959
  N     -305.406    -216.897     153.719
  O     -300.880    -216.803     153.685
  O     -299.402    -217.704     155.579
  H     -305.240    -220.835     154.238
  H     -300.101    -216.229     153.555
  H     -309.757    -216.964     152.668
  H     -303.349    -216.406     153.285
  H     -306.289    -217.515     155.471
  H     -303.923    -219.077     154.250
  H     -303.774    -220.104     156.524
  H     -304.016    -217.602     157.747
  H     -301.882    -216.845     156.560
  H     -301.780    -218.442     157.358
  H     -307.781    -215.041     149.098
  H     -306.050    -214.972     149.436
  P     -305.583    -220.304     158.461
  C     -305.219    -222.847     158.994
  O     -305.156    -221.795     158.039
  O     -307.144    -220.490     158.785
  O     -304.862    -219.727     159.637
  H     -307.262    -220.629     159.745
  H     -304.900    -223.761     158.539
  H     -306.225    -222.954     159.341
  H     -304.579    -222.618     159.820

 6  7  8  9  10  11  12  13  14  15  25  28  32  33  34  35 0
 6-311+G(2d,p)
 ****
 36  37  40 0
 6-311+G(2d,p)
 ****
 1  2  3  4  5  16  17  18  19  20  21  22  23  24 0
 3-21G
 ****
 26  27  29  30  31  38  39 41  42  43  44  45  46  47  48 0
 3-21G
 ****


