%nproc=1
%NoSave
%Mem=1900MB
#P OB98/GEN NMR

erre ene a

0 1
  C      676.764    -313.304     573.847
  O      675.898    -312.199     573.685
  H      677.800    -312.950     573.775
  H      676.595    -314.034     573.050
  H      676.622    -313.772     574.822
  P      674.319    -312.424     573.845
  C      673.893    -312.235     571.315
  O      673.805    -313.068     572.466
  C      673.407    -312.983     570.076
  O      672.162    -313.656     570.398
  C      673.153    -312.076     568.868
  O      673.554    -312.765     567.687
  C      671.646    -311.900     568.872
  O      671.132    -311.617     567.573
  C      671.175    -313.243     569.433
  N      666.220    -312.946     568.511
  C      667.279    -313.136     567.641
  N      666.977    -313.236     566.327
  N      668.524    -313.220     568.029
  C      668.680    -313.116     569.373
  C      667.710    -312.922     570.333
  C      666.333    -312.824     569.890
  O      665.355    -312.645     570.611
  N      668.262    -312.844     571.585
  C      669.566    -312.975     571.386
  N      669.863    -313.135     570.054
  O      673.543    -311.230     574.298
  O      674.203    -313.634     574.882
  H      670.159    -311.478     567.671
  H      673.998    -313.307     575.774
  H      665.280    -312.881     568.159
  H      670.321    -312.960     572.149
  H      671.098    -314.017     568.659
  H      671.370    -311.073     569.541
  H      666.040    -313.200     565.963
  H      673.678    -311.115     568.936
  H      667.737    -313.396     565.674
  H      674.139    -313.766     569.829
  H      674.942    -311.940     571.184
  H      673.294    -311.331     571.472
  P      674.975    -312.417     567.035
  C      674.131    -310.572     565.450
  O      674.959    -310.881     566.570
  O      675.480    -313.392     566.013
  O      675.952    -312.378     568.315
  H      676.849    -312.653     568.034
  H      674.200    -309.527     565.233
  H      673.116    -310.823     565.677
  H      674.456    -311.135     564.600

 6  7  8  9  10  11  12  13  14  15  26  29  33  34 0
 6-311+G(2d,p)
 ****
 36  38  39  40  41 0
 6-311+G(2d,p)
 ****
 1  2  3  4  5  16  17  18  19  20  21  22  23  24  25 0
 3-21G
 ****
 27  28  30  31  32  35  37  42  43  44  45  46  47 0
 3-21G
 ****
 48  49 0
 3-21G
 ****


