%nproc=1
%NoSave
%Mem=1900MB
#P OB98/GEN NMR

erre ene a

0 1
  C     -475.459     357.542     167.543
  O     -475.058     356.850     168.736
  P     -474.612     355.307     168.549
  C     -474.156     355.404     171.111
  O     -474.597     354.640     170.000
  C     -475.314     355.710     172.053
  O     -476.315     356.520     171.396
  C     -476.073     354.476     172.547
  O     -475.378     353.837     173.614
  C     -477.363     355.097     173.034
  O     -477.172     355.623     174.379
  C     -477.591     356.270     172.036
  N     -481.887     357.702     169.789
  C     -481.207     358.287     170.817
  N     -481.720     359.466     171.298
  N     -480.102     357.813     171.330
  C     -479.690     356.656     170.735
  C     -480.305     355.978     169.691
  C     -481.520     356.517     169.156
  O     -482.204     356.024     168.266
  N     -479.576     354.866     169.340
  C     -478.533     354.867     170.141
  N     -478.550     355.944     171.018
  O     -473.042     355.424     168.189
  O     -475.373     354.581     167.484
  H     -477.144     354.855     174.993
  H     -472.755     354.664     167.663
  H     -482.736     358.138     169.425
  H     -477.729     354.152     170.131
  H     -477.894     357.175     172.555
  H     -478.189     354.391     173.094
  H     -482.501     359.933     170.910
  H     -476.281     353.801     171.717
  H     -481.185     359.923     172.042
  H     -474.914     356.273     172.912
  H     -473.705     356.334     170.764
  H     -473.362     354.841     171.622
  P     -474.556     352.492     173.250
  C     -473.147     353.334     175.284
  O     -473.615     352.238     174.515
  O     -473.548     353.002     172.118
  O     -475.390     351.359     172.796
  H     -473.309     352.275     171.525
  H     -473.971     354.056     175.454
  H     -472.330     353.827     174.750
  H     -472.798     352.972     176.251
  H     -475.730     358.548     167.788
  H     -476.298     357.043     167.106
  H     -474.647     357.551     166.846

 3  4  5  6  7  8  9  10  11  12  23  26  30  31  33  0
 6-311+G(2d,p)
 ****
 35  36  37  38 0
 6-311+G(2d,p)
 ****
 1  2  13  14  15  16  17  18  19  20  21  22  24  25  27  28  29 0
 3-21G
 ****
 32  34  39  40  41  42  43  44  45  46  47  48  49 0
 3-21G
 ****


