%nproc=1
%NoSave
%Mem=1900MB
#P OB98/GEN NMR

erre ene a

0 1
  C        6.994     -75.930      11.145
  O        6.923     -76.701      12.328
  H        6.742     -76.547      10.278
  H        6.274     -75.112      11.215
  H        7.997     -75.509      11.026
  P        7.931     -77.943      12.436
  C        7.732     -80.500      12.041
  O        7.057     -79.255      12.133
  C        6.987     -81.432      11.091
  O        5.750     -81.869      11.690
  C        6.597     -80.804       9.757
  O        7.688     -80.772       8.850
  C        5.516     -81.768       9.295
  O        6.123     -82.951       8.743
  C        4.805     -82.107      10.613
  N       -0.274     -81.893      10.045
  C        0.623     -82.864       9.773
  N        1.957     -82.856       9.971
  C        2.345     -81.698      10.530
  C        1.546     -80.625      10.885
  C        0.172     -80.746      10.615
  N       -0.728     -79.717      10.836
  N        2.307     -79.604      11.419
  C        3.545     -80.047      11.369
  N        3.617     -81.310      10.846
  O        8.220     -78.031      14.010
  O        9.191     -77.810      11.649
  H        6.319     -82.755       7.808
  H        9.058     -77.573      14.207
  H        0.216     -83.769       9.333
  H        4.414     -79.493      11.693
  H        4.514     -83.162      10.667
  H        4.866     -81.347       8.522
  H        6.156     -79.810       9.894
  H        7.611     -82.321      10.934
  H        7.782     -80.962      13.033
  H       -1.524     -79.733      10.206
  H       -0.299     -78.816      11.006
  H        8.748     -80.322      11.679
  P        7.665     -79.661       7.693
  C        7.024     -80.283       5.266
  O        6.585     -80.152       6.611
  O        9.069     -79.883       6.958
  O        7.518     -78.255       8.163
  H        9.575     -79.048       6.953
  H        6.210     -80.615       4.656
  H        7.820     -80.997       5.218
  H        7.373     -79.336       4.911

 6  7  8  9  10  11  12  13  14  15  25  28  32  33  34  35 0
 6-311+G(2d,p)
 ****
 36  39  40 0
 6-311+G(2d,p)
 ****
 1  2  3  4  5  16  17  18  19  20  21  22  23  24 0
 3-21G
 ****
 26  27  29  30  31  37  38  41  42  43  44  45  46  47  48 0
 3-21G
 ****


