%nproc=1
%NoSave
%Mem=1900MB
#P OB98/GEN NMR

erre ene a

0 1
  C      -83.532     -79.264     -57.710
  O      -82.490     -79.752     -56.890
  H      -83.204     -78.334     -58.181
  H      -84.419     -79.060     -57.107
  H      -83.774     -79.990     -58.492
  P      -82.719     -81.176     -56.191
  C      -80.258     -81.999     -55.972
  O      -81.401     -81.467     -55.320
  C      -79.307     -80.865     -56.357
  O      -79.070     -80.041     -55.184
  C      -77.944     -81.359     -56.854
  O      -77.486     -80.494     -57.897
  C      -77.053     -81.209     -55.633
  O      -75.672     -81.095     -55.942
  C      -77.643     -79.946     -54.997
  N      -77.313     -79.826     -53.578
  C      -75.967     -79.792     -53.234
  O      -75.037     -79.780     -54.040
  N      -75.700     -79.772     -51.889
  C      -76.621     -79.807     -50.884
  O      -76.320     -79.810     -49.697
  C      -78.028     -79.851     -51.311
  C      -78.304     -79.860     -52.616
  O      -82.587     -82.210     -57.406
  O      -83.999     -81.330     -55.442
  H      -83.460     -82.368     -57.815
  H      -75.227     -80.660     -55.186
  H      -74.728     -79.746     -51.622
  H      -78.787     -79.888     -50.541
  H      -79.330     -79.907     -52.963
  H      -77.300     -79.053     -55.533
  H      -77.181     -82.072     -54.969
  H      -77.970     -82.389     -57.214
  H      -79.795     -80.229     -57.106
  H      -80.574     -82.527     -56.877
  H      -79.756     -82.705     -55.303
  P      -77.438     -81.094     -59.386
  C      -77.399     -78.677     -60.381
  O      -76.780     -79.949     -60.300
  O      -78.984     -81.081     -59.782
  O      -76.774     -82.429     -59.454
  H      -79.467     -80.313     -59.434
  H      -76.829     -78.044     -61.029
  H      -77.445     -78.240     -59.405
  H      -78.390     -78.787     -60.770

 6  7  8  9  10  11  12  13  14  15  16  27  31  32  33  34  35 0
 6-311+G(2d,p)
 ****
 36  37 0
 6-311+G(2d,p)
 ****
 1  2  3  4  5  17  18  19  20  21  22  23  24  25 0
 3-21G
 ****
 26  28  29  30  38  39  40  41  42  43  44  45 0
 3-21G
 ****


