%nproc=1
%NoSave
%Mem=1900MB
#P OB98/GEN NMR

erre ene a

0 1
  C     -815.000    -279.418     351.826
  O     -814.994    -278.253     352.639
  H     -815.286    -279.130     350.811
  H     -815.732    -280.141     352.204
  H     -814.009    -279.873     351.800
  P     -814.607    -278.419     354.188
  C     -816.169    -276.420     354.704
  O     -815.818    -277.765     355.019
  C     -817.458    -276.033     355.419
  O     -818.570    -276.768     354.886
  C     -817.432    -276.298     356.925
  O     -816.751    -275.254     357.600
  C     -818.930    -276.329     357.213
  O     -819.443    -274.982     357.253
  C     -819.471    -277.084     355.990
  N     -822.315    -280.989     357.520
  C     -822.566    -279.630     357.577
  N     -823.728    -279.255     358.165
  N     -821.748    -278.719     357.124
  C     -820.600    -279.232     356.620
  C     -820.232    -280.563     356.528
  C     -821.173    -281.565     356.996
  O     -820.991    -282.779     356.949
  N     -818.955    -280.700     356.026
  C     -818.577    -279.459     355.786
  N     -819.524    -278.531     356.144
  O     -813.260    -277.909     354.594
  O     -814.773    -279.991     354.470
  H     -819.176    -274.553     356.420
  H     -813.922    -280.460     354.342
  H     -822.984    -281.641     357.904
  H     -817.626    -279.173     355.347
  H     -820.470    -276.744     355.709
  H     -819.166    -276.790     358.175
  H     -824.243    -279.885     358.770
  H     -817.013    -277.284     357.157
  H     -823.905    -278.268     358.260
  H     -817.649    -274.970     355.213
  H     -816.294    -276.364     353.613
  H     -815.360    -275.743     355.007
  P     -815.625    -275.584     358.695
  C     -815.785    -273.135     359.526
  O     -815.864    -274.509     359.874
  O     -814.227    -275.630     358.167
  O     -816.097    -276.953     359.376
  H     -815.769    -277.752     358.901
  H     -815.962    -272.536     360.395
  H     -816.522    -272.912     358.783
  H     -814.811    -272.921     359.138

 6  7  8  9  10  11  12  13  14  15  26  29  33  34 0
 6-311+G(2d,p)
 ****
 36  38  39  40  41 0
 6-311+G(2d,p)
 ****
 1  2  3  4  5  16  17  18  19  20  21  22  23  24  25 0
 3-21G
 ****
 27  28  30  31  32  35  37  42  43  44  45  46  47 0
 3-21G
 ****
 48  49 0
 3-21G
 ****


