%nproc=1
%NoSave
%Mem=1900MB
#P OB98/GEN NMR

erre ene a

0 1
  C       96.951     428.048      -6.505
  O       97.160     428.185      -7.897
  H       97.920     428.078      -6.001
  H       96.470     427.090      -6.288
  H       96.332     428.870      -6.132
  P       95.849     428.141      -8.823
  C       96.870     426.474     -10.527
  O       95.865     426.709      -9.551
  C       96.832     425.019     -10.991
  O       97.235     424.132      -9.924
  C       95.459     424.543     -11.456
  O       95.212     424.921     -12.798
  C       95.595     423.036     -11.283
  O       96.298     422.438     -12.392
  C       96.422     422.933      -9.993
  N       93.291     419.903      -7.441
  C       93.979     419.687      -8.620
  N       93.757     418.503      -9.234
  N       94.801     420.554      -9.150
  C       94.897     421.703      -8.440
  C       94.281     422.029      -7.253
  C       93.398     421.048      -6.661
  O       92.811     421.152      -5.587
  N       94.645     423.281      -6.833
  C       95.446     423.728      -7.781
  N       95.618     422.809      -8.787
  O       96.197     429.159     -10.012
  O       94.573     428.504      -8.146
  H       97.147     422.894     -12.515
  H       95.372     429.571     -10.329
  H       92.686     419.189      -7.074
  H       95.926     424.695      -7.787
  H       97.103     422.077     -10.008
  H       94.621     422.547     -11.233
  H       92.917     417.968      -9.064
  H       94.673     424.917     -10.788
  H       94.240     418.349     -10.109
  H       97.567     424.911     -11.800
  H       97.850     426.685     -10.090
  H       96.708     427.142     -11.380
  P       93.705     424.809     -13.341
  C       94.430     422.961     -15.022
  O       93.556     423.340     -13.965
  O       93.705     425.758     -14.631
  O       92.660     425.203     -12.354
  H       92.791     425.981     -14.880
  H       94.207     421.960     -15.328
  H       95.443     423.013     -14.683
  H       94.297     423.625     -15.850

 6  7  8  9  10  11  12  13  14  15  26  29  33  34 0
 6-311+G(2d,p)
 ****
 36  38  39  40  41 0
 6-311+G(2d,p)
 ****
 1  2  3  4  5  16  17  18  19  20  21  22  23  24  25 0
 3-21G
 ****
 27  28  30  31  32  35  37  42  43  44  45  46  47 0
 3-21G
 ****
 48  49 0
 3-21G
 ****


