%nproc=1
%NoSave
%Mem=1900MB
#P OB98/GEN NMR

erre ene a

0 1
  C      -10.672     -84.760     -84.982
  O      -10.059     -84.164     -83.859
  H       -9.892     -85.184     -85.621
  H      -11.222     -84.010     -85.555
  H      -11.347     -85.563     -84.677
  P      -10.988     -83.613     -82.675
  C       -9.247     -84.496     -80.993
  O      -10.039     -83.388     -81.403
  C       -8.251     -84.054     -79.925
  O       -7.136     -83.371     -80.541
  C       -8.826     -83.066     -78.918
  O       -9.672     -83.708     -77.985
  C       -7.552     -82.478     -78.337
  O       -7.003     -83.329     -77.324
  C       -6.624     -82.430     -79.571
  N       -6.534     -81.084     -80.138
  C       -5.774     -80.955     -81.295
  O       -5.205     -81.897     -81.843
  N       -5.633     -79.681     -81.775
  C       -6.051     -78.544     -81.146
  O       -5.692     -77.419     -81.480
  C       -6.901     -78.745     -79.963
  C       -7.090     -79.987     -79.512
  O      -12.230     -84.396     -82.410
  O      -11.329     -82.115     -83.134
  H      -12.233     -82.090     -83.500
  H       -6.671     -84.122     -77.793
  H       -5.047     -79.574     -82.592
  H       -7.312     -77.869     -79.477
  H       -7.685     -80.159     -78.621
  H       -5.615     -82.765     -79.305
  H       -7.731     -81.499     -77.888
  H       -9.373     -82.277     -79.445
  H       -7.865     -84.948     -79.420
  H       -8.702     -84.880     -81.863
  H       -9.905     -85.282     -80.610
  P      -11.091     -83.069     -77.608
  C      -12.475     -85.206     -77.269
  O      -11.860     -84.087     -76.639
  O      -11.895     -82.577     -78.765
  O      -10.721     -81.859     -76.624
  H      -11.176     -81.052     -76.933
  H      -12.955     -85.812     -76.530
  H      -11.730     -85.784     -77.776
  H      -13.202     -84.863     -77.975

 6  7  8  9  10  11  12  13  14  15  16  27  31  32  33  34  35 0
 6-311+G(2d,p)
 ****
 36  37 0
 6-311+G(2d,p)
 ****
 1  2  3  4  5  17  18  19  20  21  22  23  24  25 0
 3-21G
 ****
 26  28  29  30  38  39  40  41  42  43  44  45 0
 3-21G
 ****


