%nproc=1
%NoSave
%Mem=1900MB
#P OB98/GEN NMR

erre ene a

0 1
  C     -159.384     183.363     416.387
  O     -158.795     184.580     415.916
  P     -157.383     184.974     416.566
  C     -156.531     186.425     414.593
  O     -156.943     186.390     415.951
  C     -157.702     186.753     413.664
  O     -158.254     188.069     413.983
  C     -157.321     186.776     412.173
  O     -158.451     186.285     411.447
  C     -157.119     188.265     411.919
  O     -157.118     188.604     410.543
  C     -158.265     188.823     412.753
  N     -157.495     193.397     410.628
  C     -157.541     192.159     410.104
  N     -157.751     190.984     410.739
  C     -157.928     191.190     412.057
  C     -157.902     192.394     412.735
  C     -157.678     193.546     411.962
  N     -157.606     194.812     412.491
  N     -158.103     192.194     414.096
  C     -158.168     190.881     414.225
  N     -158.151     190.242     413.017
  O     -156.360     183.935     415.905
  O     -157.373     184.914     418.060
  H     -156.505     188.014     410.059
  H     -156.180     183.200     416.520
  H     -157.388     192.093     409.030
  H     -158.230     190.345     415.165
  H     -159.240     188.666     412.276
  H     -156.153     188.577     412.334
  H     -156.448     186.168     411.933
  H     -158.494     186.018     413.833
  H     -156.110     185.453     414.305
  H     -157.435     195.582     411.854
  H     -157.725     194.967     413.484
  H     -155.718     187.151     414.484
  P     -158.287     184.968     410.546
  C     -160.739     184.237     410.311
  O     -159.645     184.890     409.693
  O     -158.553     183.826     411.651
  O     -156.997     184.821     409.817
  H     -159.367     184.008     412.157
  H     -161.613     184.325     409.664
  H     -160.963     184.704     411.276
  H     -160.507     183.177     410.454
  H     -160.317     183.202     415.888
  H     -159.551     183.432     417.442
  H     -158.724     182.545     416.183

 3  4  5  6  7  8  9  10  11  12  22  25  29  30  31  32 0
 6-311+G(2d,p)
 ****
 33  36  37 0
 6-311+G(2d,p)
 ****
 1  2  13  14  15  16  17  18  19  20  21  23  24  26 0
 3-21G
 ****
 27  28  34  35  38  39  40  41  42  43  44  45  46  47  48 0
 3-21G
 ****


