%nproc=1
%NoSave
%Mem=1900MB
#P OB98/GEN NMR

erre ene a

0 1
  C      313.438     155.864     -39.327
  O      312.984     157.105     -38.822
  H      313.806     156.016     -40.346
  H      312.620     155.138     -39.349
  H      314.258     155.486     -38.707
  P      312.367     157.093     -37.339
  C      314.340     158.563     -36.573
  O      312.926     158.443     -36.668
  C      314.841     159.700     -37.470
  O      314.882     159.225     -38.837
  C      313.945     160.939     -37.432
  O      314.760     162.112     -37.487
  C      313.129     160.830     -38.707
  O      312.665     162.098     -39.170
  C      314.114     160.135     -39.647
  N      313.840     159.476     -44.700
  C      314.706     160.159     -43.924
  N      314.713     160.271     -42.576
  C      313.727     159.538     -42.034
  C      312.764     158.792     -42.695
  C      312.842     158.781     -44.099
  N      311.949     158.108     -44.898
  N      311.891     158.216     -41.791
  C      312.326     158.602     -40.602
  N      313.423     159.411     -40.701
  O      312.592     155.847     -36.554
  O      310.834     157.460     -37.626
  H      312.048     162.458     -38.501
  H      310.754     158.186     -38.269
  H      315.492     160.696     -44.451
  H      311.878     158.328     -39.651
  H      314.804     160.840     -40.131
  H      312.249     160.195     -38.530
  H      313.310     160.974     -36.546
  H      315.872     159.943     -37.185
  H      314.820     157.623     -36.873
  H      312.084     158.138     -45.898
  H      311.209     157.569     -44.471
  H      314.595     158.762     -35.529
  P      314.272     163.418     -36.698
  C      315.793     163.981     -34.683
  O      315.561     164.155     -36.080
  O      313.132     163.226     -35.758
  O      313.864     164.411     -37.895
  H      313.074     164.919     -37.625
  H      316.674     164.517     -34.398
  H      315.925     162.941     -34.470
  H      314.955     164.354     -34.133

 6  7  8  9  10  11  12  13  14  15  25  28  32  33  34  35 0
 6-311+G(2d,p)
 ****
 36  39  40 0
 6-311+G(2d,p)
 ****
 1  2  3  4  5  16  17  18  19  20  21  22  23  24 0
 3-21G
 ****
 26  27  29  30  31  37  38  41  42  43  44  45  46  47 0
 3-21G
 ****
 48 0
 3-21G
 ****


