%nproc=1
%NoSave
%Mem=1900MB
#P OB98/GEN NMR

erre ene a

0 1
  C      230.098     352.490     394.750
  O      230.490     352.953     396.027
  H      229.028     352.265     394.771
  H      230.643     351.576     394.495
  H      230.278     353.255     393.987
  P      231.984     353.500     396.225
  C      232.712     351.267     397.298
  O      232.947     352.221     396.267
  C      232.810     349.853     396.726
  O      231.953     349.722     395.566
  C      234.205     349.471     396.254
  O      235.050     349.164     397.344
  C      233.891     348.298     395.340
  O      233.699     347.094     396.097
  C      232.568     348.755     394.683
  N      232.762     349.312     393.342
  C      233.039     348.401     392.327
  O      233.161     347.190     392.523
  N      233.212     348.934     391.078
  C      233.242     350.262     390.774
  O      233.489     350.694     389.651
  C      232.965     351.183     391.886
  C      232.739     350.671     393.100
  O      232.172     354.473     397.342
  O      232.333     354.165     394.808
  H      234.523     346.945     396.599
  H      232.293     355.137     394.887
  H      233.431     348.292     390.335
  H      232.964     352.244     391.682
  H      232.538     351.334     393.937
  H      231.869     347.911     394.607
  H      234.691     348.102     394.627
  H      234.633     350.284     395.649
  H      232.451     349.148     397.488
  H      231.705     351.428     397.703
  H      233.449     351.414     398.096
  P      236.332     350.076     397.641
  C      237.927     348.066     397.462
  O      237.605     349.369     396.970
  O      236.510     350.476     399.066
  O      236.111     351.363     396.714
  H      236.056     352.162     397.276
  H      238.787     347.693     396.947
  H      237.099     347.408     397.297
  H      238.135     348.122     398.510

 6  7  8  9  10  11  12  13  14  15  16  26  31  32  33  34  35 0
 6-311+G(2d,p)
 ****
 36  37 0
 6-311+G(2d,p)
 ****
 1  2  3  4  5  17  18  19  20  21  22  23  24  25 0
 3-21G
 ****
 27  28  29  30  38  39  40  41  42  43  44  45 0
 3-21G
 ****


