%nproc=1
%NoSave
%Mem=1900MB
#P OB98/GEN NMR

erre ene a

0 1
  C     -300.095    -879.454     352.827
  O     -298.763    -879.796     353.236
  P     -298.533    -881.166     354.052
  C     -297.140    -882.622     352.384
  O     -297.155    -881.830     353.567
  C     -295.787    -882.521     351.689
  O     -295.600    -881.205     351.133
  C     -294.581    -882.717     352.620
  O     -294.376    -884.094     352.915
  C     -293.466    -882.097     351.796
  O     -292.962    -883.042     350.819
  C     -294.182    -880.930     351.103
  N     -293.867    -879.638     351.699
  C     -292.543    -879.241     351.650
  O     -291.633    -879.955     351.185
  N     -292.261    -878.013     352.189
  C     -293.148    -877.187     352.827
  O     -292.826    -876.103     353.301
  C     -294.515    -877.701     352.922
  C     -294.812    -878.873     352.363
  O     -299.624    -882.134     353.393
  O     -298.732    -881.085     355.541
  H     -292.480    -883.726     351.324
  H     -299.903    -882.821     354.048
  H     -291.302    -877.688     352.143
  H     -295.246    -877.085     353.428
  H     -295.828    -879.277     352.440
  H     -293.911    -880.896     350.045
  H     -292.610    -881.789     352.411
  H     -294.726    -882.131     353.547
  H     -295.762    -883.244     350.867
  H     -297.918    -882.275     351.703
  H     -297.343    -883.664     352.657
  P     -293.199    -884.435     353.967
  C     -294.762    -886.017     355.332
  O     -293.582    -885.857     354.580
  O     -293.510    -883.373     355.128
  O     -291.832    -884.297     353.354
  H     -294.460    -883.217     355.221
  H     -295.562    -885.374     354.956
  H     -294.559    -885.800     356.379
  H     -295.079    -887.070     355.259
  H     -300.078    -878.523     352.300
  H     -300.721    -879.364     353.690
  H     -300.479    -880.220     352.186

 3  4  5  6  7  8  9  10  11  12  13  23  28  29  30  31  32 0
 6-311+G(2d,p)
 ****
 33  34 0
 6-311+G(2d,p)
 ****
 1  2  14  15  16  17  18  19  20  21  22  24  25  26 0
 3-21G
 ****
 27  35  36  37  38  39  40  41  42  43  44  45 0
 3-21G
 ****


