%nproc=1
%NoSave
%Mem=1900MB
#P OB98/GEN NMR

erre ene a

0 1
  C     -409.846    -522.817      70.380
  O     -409.075    -522.817      69.199
  H     -410.467    -523.715      70.390
  H     -410.499    -521.938      70.397
  H     -409.212    -522.820      71.269
  P     -407.851    -521.792      69.078
  C     -405.786    -523.338      69.182
  O     -406.621    -522.430      69.885
  C     -405.845    -524.733      69.817
  O     -407.194    -525.248      69.697
  C     -404.924    -525.719      69.094
  O     -404.463    -526.756      69.952
  C     -405.840    -526.321      68.038
  O     -405.402    -527.598      67.575
  C     -407.172    -526.359      68.783
  N     -411.155    -528.840      66.793
  C     -410.088    -529.340      67.514
  N     -410.083    -530.673      67.740
  N     -409.104    -528.599      67.959
  C     -409.202    -527.297      67.600
  C     -410.197    -526.689      66.868
  C     -411.298    -527.513      66.415
  O     -412.257    -527.127      65.751
  N     -409.949    -525.352      66.697
  C     -408.805    -525.149      67.321
  N     -408.323    -526.295      67.902
  O     -408.286    -520.570      70.019
  O     -407.530    -521.328      67.691
  H     -405.966    -527.845      66.821
  H     -407.811    -519.759      69.766
  H     -411.899    -529.448      66.502
  H     -408.294    -524.198      67.389
  H     -407.258    -527.279      69.372
  H     -405.854    -525.652      67.174
  H     -410.712    -531.295      67.251
  H     -404.065    -525.234      68.633
  H     -409.181    -531.091      67.982
  H     -405.625    -524.666      70.887
  H     -404.771    -522.937      69.228
  H     -406.072    -523.383      68.131
  P     -403.022    -526.602      70.636
  C     -403.427    -527.123      73.199
  O     -403.192    -526.189      72.170
  O     -402.416    -525.292      69.951
  O     -402.128    -527.790      70.462
  H     -401.629    -525.519      69.422
  H     -403.505    -526.610      74.135
  H     -402.616    -527.820      73.240
  H     -404.339    -527.648      73.003

 6  7  8  9  10  11  12  13  14  15  26  29  33  34 0
 6-311+G(2d,p)
 ****
 36  38  39  40  41 0
 6-311+G(2d,p)
 ****
 1  2  3  4  5  16  17  18  19  20  21  22  23  24  25 0
 3-21G
 ****
 27  28  30  31  32  35  37  42  43  44  45  46  47 0
 3-21G
 ****
 48  49 0
 3-21G
 ****


