%nproc=1
%NoSave
%Mem=1900MB
#P OB98/GEN NMR

erre ene a

0 1
  C     -227.258     137.522      52.494
  O     -226.220     138.432      52.091
  P     -224.711     137.896      51.983
  C     -223.695     138.809      54.207
  O     -224.086     137.679      53.445
  C     -222.453     138.506      55.059
  O     -222.727     137.404      55.972
  C     -221.208     138.119      54.248
  O     -220.066     138.604      54.969
  C     -221.245     136.601      54.295
  O     -219.991     136.000      54.010
  C     -221.733     136.386      55.731
  N     -222.281     135.053      55.987
  C     -221.445     134.106      56.567
  O     -220.259     134.291      56.827
  N     -222.019     132.885      56.825
  C     -223.298     132.514      56.529
  O     -223.741     131.396      56.757
  C     -224.125     133.547      55.888
  C     -223.587     134.747      55.653
  O     -223.929     139.202      51.472
  O     -224.498     136.767      51.029
  H     -220.083     135.044      54.173
  H     -223.326     138.960      50.745
  H     -221.432     132.190      57.260
  H     -225.147     133.297      55.642
  H     -224.184     135.529      55.192
  H     -220.910     136.578      56.429
  H     -221.968     136.235      53.557
  H     -221.212     138.523      53.231
  H     -222.245     139.385      55.681
  H     -224.517     139.099      54.870
  H     -223.493     139.645      53.528
  P     -219.505     140.070      54.619
  C     -217.020     139.668      53.903
  O     -218.360     139.886      53.516
  O     -218.679     140.386      55.958
  O     -220.563     141.083      54.325
  H     -218.133     139.639      56.247
  H     -216.958     138.983      54.751
  H     -216.558     140.621      54.169
  H     -216.478     139.235      53.061
  H     -228.196     138.037      52.514
  H     -227.039     137.141      53.470
  H     -227.311     136.711      51.798

 3  4  5  6  7  8  9  10  11  12  13  23  28  29  30  31  32 0
 6-311+G(2d,p)
 ****
 33  34 0
 6-311+G(2d,p)
 ****
 1  2  14  15  16  17  18  19  20  21  22  24  25  26 0
 3-21G
 ****
 27  35  36  37  38  39  40  41  42  43  44  45 0
 3-21G
 ****


