%nproc=1
%NoSave
%Mem=1900MB
#P OB98/GEN NMR

erre ene a

0 1
  C      237.063     147.070    -267.380
  O      237.408     146.783    -266.021
  P      238.870     147.248    -265.535
  C      238.265     149.499    -264.376
  O      238.674     148.146    -264.218
  C      238.967     150.395    -263.358
  O      238.634     151.779    -263.573
  C      238.584     150.116    -261.914
  O      239.278     148.991    -261.393
  C      239.049     151.397    -261.233
  O      240.460     151.324    -260.961
  C      238.764     152.463    -262.303
  N      236.561     156.036    -259.460
  C      237.846     155.531    -259.411
  N      238.669     156.076    -258.487
  N      238.285     154.578    -260.191
  C      237.361     154.152    -261.086
  C      236.060     154.570    -261.233
  C      235.577     155.602    -260.340
  O      234.439     156.062    -260.321
  N      235.432     153.908    -262.255
  C      236.361     153.111    -262.746
  N      237.544     153.211    -262.058
  O      239.297     148.316    -266.650
  O      239.855     146.133    -265.423
  H      240.903     151.086    -261.800
  H      240.268     148.355    -266.722
  H      236.273     156.764    -258.828
  H      236.226     152.448    -263.594
  H      239.590     153.176    -262.400
  H      238.550     151.574    -260.274
  H      238.419     156.858    -257.904
  H      237.497     150.013    -261.806
  H      239.625     155.743    -258.461
  H      240.051     150.273    -263.488
  H      237.183     149.577    -264.246
  H      238.485     149.819    -265.399
  P      238.393     147.798    -260.786
  C      238.034     145.975    -262.598
  O      238.860     146.480    -261.569
  O      236.932     148.098    -261.371
  O      238.396     147.718    -259.297
  H      236.249     147.756    -260.766
  H      237.655     146.779    -263.233
  H      237.195     145.425    -262.161
  H      238.622     145.290    -263.217
  H      236.074     146.714    -267.580
  H      237.756     146.583    -268.034
  H      237.101     148.127    -267.542

 3  4  5  6  7  8  9  10  11  12  23  26  30  31  33  0
 6-311+G(2d,p)
 ****
 35  36  37  38 0
 6-311+G(2d,p)
 ****
 1  2  13  14  15  16  17  18  19  20  21  22  24  25  27  28  29 0
 3-21G
 ****
 32  34  39  40  41  42  43  44  45  46  47  48  49 0
 3-21G
 ****


