%nproc=1
%NoSave
%Mem=1900MB
#P OB98/GEN NMR

erre ene a

0 1
  C      280.076      -9.805      67.782
  O      279.753     -10.895      66.909
  P      278.504     -11.824      67.295
  C      277.999     -13.651      69.079
  O      278.983     -12.904      68.381
  C      278.352     -15.141      69.076
  O      278.140     -15.738      67.779
  C      279.808     -15.427      69.414
  O      280.028     -15.417      70.819
  C      279.971     -16.835      68.865
  O      279.421     -17.789      69.792
  C      279.119     -16.786      67.590
  N      280.984     -18.742      63.237
  C      280.288     -19.301      64.251
  N      279.841     -18.719      65.385
  C      280.169     -17.418      65.410
  C      280.879     -16.710      64.453
  C      281.297     -17.425      63.320
  N      282.004     -16.850      62.288
  N      281.034     -15.394      64.833
  C      280.417     -15.301      65.991
  N      279.887     -16.501      66.387
  O      278.287     -12.705      65.975
  O      277.271     -11.063      67.653
  H      279.847     -17.628      70.654
  H      277.338     -12.885      65.850
  H      280.053     -20.355      64.136
  H      280.325     -14.398      66.577
  H      278.577     -17.721      67.416
  H      281.019     -17.109      68.712
  H      280.477     -14.733      68.884
  H      277.700     -15.647      69.799
  H      277.016     -13.498      68.622
  H      282.244     -17.424      61.494
  H      282.218     -15.866      62.336
  H      277.924     -13.270      70.104
  P      281.078     -14.347      71.391
  C      283.665     -14.125      71.274
  O      282.508     -14.806      70.828
  O      281.140     -14.704      72.949
  O      280.703     -12.924      71.153
  H      281.338     -13.900      73.469
  H      284.541     -14.737      71.049
  H      283.631     -13.949      72.353
  H      283.757     -13.171      70.749
  H      280.925      -9.280      67.398
  H      280.302     -10.184      68.757
  H      279.242      -9.138      67.843

 3  4  5  6  7  8  9  10  11  12  22  25  29  30  31  32 0
 6-311+G(2d,p)
 ****
 33  36  37 0
 6-311+G(2d,p)
 ****
 1  2  13  14  15  16  17  18  19  20  21  23  24  26 0
 3-21G
 ****
 27  28  34  35  38  39  40  41  42  43  44  45  46  47  48 0
 3-21G
 ****


