%nproc=1
%NoSave
%Mem=1900MB
#P OB98/GEN NMR

erre ene a

0 1
  C      193.720     -26.939    -115.790
  O      194.930     -27.148    -116.493
  P      196.226     -26.274    -116.150
  C      195.609     -24.527    -117.931
  O      195.929     -24.753    -116.562
  C      195.747     -23.045    -118.274
  O      194.945     -22.235    -117.382
  C      197.161     -22.504    -118.132
  O      198.007     -22.952    -119.173
  C      196.897     -21.004    -118.114
  O      196.715     -20.501    -119.446
  C      195.573     -20.931    -117.326
  N      195.766     -20.493    -115.952
  C      195.451     -19.159    -115.682
  O      195.111     -18.400    -116.593
  N      195.537     -18.713    -114.386
  C      196.017     -19.494    -113.468
  N      196.021     -19.020    -112.194
  C      196.513     -20.857    -113.746
  C      196.339     -21.295    -114.992
  O      197.516     -26.821    -116.661
  O      196.236     -26.209    -114.548
  H      197.125     -26.457    -114.229
  H      197.609     -20.356    -119.814
  H      196.965     -21.442    -112.958
  H      196.652     -22.292    -115.282
  H      194.876     -20.244    -117.820
  H      197.723     -20.442    -117.667
  H      197.578     -22.812    -117.165
  H      195.380     -22.897    -119.298
  H      195.656     -18.088    -112.038
  H      194.581     -24.853    -118.108
  H      196.059     -19.633    -111.384
  H      196.273     -25.129    -118.560
  P      199.576     -22.660    -119.008
  C      199.654     -20.513    -120.455
  O      199.792     -21.083    -119.168
  O      200.208     -23.269    -120.348
  O      200.197     -23.267    -117.792
  H      201.078     -23.666    -120.151
  H      199.483     -19.442    -120.346
  H      198.814     -20.953    -120.999
  H      200.578     -20.668    -121.021
  H      192.974     -27.612    -116.157
  H      193.393     -25.930    -115.935
  H      193.878     -27.116    -114.747

 3  4  5  6  7  8  9  10  11  12  13  24  27  28  29  30  32 0
 6-311+G(2d,p)
 ****
 34  35 0
 6-311+G(2d,p)
 ****
 1  2  14  15  16  17  18  19  20  21  22  23  25  26 0
 3-21G
 ****
 31  33  36  37  38  39  40  41  42  43  44  45  46 0
 3-21G
 ****


