%nproc=1
%NoSave
%Mem=1900MB
#P OB98/GEN NMR

erre ene a

0 1
  C     -488.055    -582.427    -615.792
  O     -488.087    -583.172    -614.582
  P     -489.523    -583.666    -614.058
  C     -491.856    -582.563    -613.797
  O     -490.464    -582.374    -614.001
  C     -492.369    -581.594    -612.732
  O     -492.140    -580.229    -613.143
  C     -493.859    -581.676    -612.459
  O     -494.171    -582.818    -611.670
  C     -494.100    -580.346    -611.758
  O     -493.678    -580.425    -610.389
  C     -493.170    -579.406    -612.545
  N     -495.598    -575.045    -613.719
  C     -495.050    -575.491    -612.563
  N     -494.438    -576.673    -612.325
  C     -494.420    -577.434    -613.429
  C     -494.954    -577.120    -614.665
  C     -495.570    -575.870    -614.792
  N     -496.138    -575.422    -615.984
  N     -494.772    -578.156    -615.565
  C     -494.118    -579.076    -614.880
  N     -493.869    -578.677    -613.595
  O     -489.242    -583.989    -612.514
  O     -490.089    -584.843    -614.785
  H     -492.743    -580.739    -610.386
  H     -489.791    -584.752    -612.216
  H     -495.105    -574.817    -611.719
  H     -493.799    -580.033    -615.264
  H     -492.677    -578.668    -611.908
  H     -495.149    -580.032    -611.766
  H     -494.429    -581.716    -613.394
  H     -491.800    -581.766    -611.809
  H     -492.049    -583.584    -613.461
  H     -496.677    -574.567    -615.934
  H     -496.237    -576.087    -616.731
  H     -492.380    -582.404    -614.749
  P     -495.715    -583.130    -611.404
  C     -497.456    -582.141    -609.774
  O     -496.106    -582.109    -610.216
  O     -495.647    -584.534    -610.634
  O     -496.594    -583.083    -612.605
  H     -494.994    -584.519    -609.919
  H     -497.570    -581.445    -608.948
  H     -497.717    -583.155    -609.437
  H     -498.131    -581.835    -610.588
  H     -487.044    -582.164    -616.022
  H     -488.638    -581.537    -615.678
  H     -488.459    -583.019    -616.586

 3  4  5  6  7  8  9  10  11  12  22  25  29  30  31  32 0
 6-311+G(2d,p)
 ****
 33  36  37 0
 6-311+G(2d,p)
 ****
 1  2  13  14  15  16  17  18  19  20  21  23  24  26 0
 3-21G
 ****
 27  28  34  35  38  39  40  41  42  43  44  45  46  47  48 0
 3-21G
 ****


