%nproc=1
%NoSave
%Mem=1900MB
#P OB98/GEN NMR

erre ene a

0 1
  C      388.599     262.960     605.411
  O      388.188     263.454     604.129
  P      387.495     264.893     603.918
  C      386.342     263.992     601.787
  O      387.110     265.035     602.357
  C      386.171     264.213     600.279
  O      387.438     264.055     599.602
  C      385.238     263.230     599.573
  O      383.877     263.466     599.861
  C      385.620     263.458     598.111
  O      384.924     264.573     597.549
  C      387.134     263.780     598.205
  N      387.992     262.721     597.688
  C      387.739     262.313     596.368
  O      386.798     262.795     595.728
  N      388.557     261.369     595.817
  C      389.468     260.795     596.552
  N      390.267     259.871     595.928
  C      389.669     261.087     597.969
  C      388.897     262.059     598.471
  O      388.301     266.039     604.443
  O      386.073     264.797     604.661
  H      385.797     265.690     604.936
  H      385.470     264.889     596.795
  H      390.406     260.559     598.557
  H      388.984     262.350     599.523
  H      387.351     264.720     597.678
  H      385.403     262.586     597.486
  H      385.510     262.205     599.866
  H      385.819     265.240     600.119
  H      390.110     259.700     594.945
  H      385.352     263.986     602.255
  H      391.018     259.387     596.397
  H      386.823     263.034     601.988
  P      382.990     262.203     600.282
  C      381.166     262.250     598.427
  O      381.497     262.466     599.791
  O      382.899     262.313     601.885
  O      383.557     260.879     599.862
  H      382.961     261.420     602.276
  H      380.105     261.987     598.349
  H      381.766     261.432     598.001
  H      381.348     263.162     597.865
  H      389.031     261.988     605.297
  H      387.750     262.899     606.059
  H      389.323     263.624     605.834

 3  4  5  6  7  8  9  10  11  12  13  24  27  28  29  30  32 0
 6-311+G(2d,p)
 ****
 34  35 0
 6-311+G(2d,p)
 ****
 1  2  14  15  16  17  18  19  20  21  22  23  25  26 0
 3-21G
 ****
 31  33  36  37  38  39  40  41  42  43  44  45  46 0
 3-21G
 ****


