%nproc=1
%NoSave
%Mem=1900MB
#P OB98/GEN NMR

erre ene a

0 1
  C     -394.488     565.974    -348.620
  O     -394.899     564.833    -347.884
  P     -395.478     565.068    -346.407
  C     -394.411     564.740    -344.080
  O     -394.206     565.126    -345.425
  C     -393.197     563.997    -343.533
  O     -392.968     562.808    -344.359
  C     -391.891     564.812    -343.530
  O     -391.196     564.600    -342.295
  C     -391.071     564.172    -344.648
  O     -389.671     564.373    -344.455
  C     -391.536     562.718    -344.542
  N     -389.771     558.206    -345.971
  C     -390.211     558.627    -344.729
  N     -390.115     557.734    -343.718
  N     -390.692     559.821    -344.504
  C     -390.766     560.596    -345.614
  C     -390.367     560.292    -346.883
  C     -389.780     558.987    -347.129
  O     -389.285     558.584    -348.173
  N     -390.618     561.331    -347.759
  C     -391.152     562.271    -346.999
  N     -391.222     561.891    -345.682
  O     -396.151     563.652    -346.063
  O     -396.453     566.182    -346.276
  H     -389.221     563.813    -345.117
  H     -397.094     563.786    -345.826
  H     -389.378     557.276    -346.090
  H     -391.478     563.250    -347.350
  H     -391.108     562.245    -343.649
  H     -391.361     564.625    -345.610
  H     -389.779     556.790    -343.828
  H     -392.044     565.899    -343.694
  H     -390.450     558.018    -342.811
  H     -393.426     563.628    -342.527
  H     -395.295     564.083    -344.018
  H     -394.601     565.633    -343.464
  P     -389.960     565.573    -342.018
  C     -387.368     565.335    -342.213
  O     -388.633     564.724    -342.330
  O     -389.953     565.705    -340.411
  O     -390.065     566.906    -342.694
  H     -389.523     566.545    -340.139
  H     -387.427     566.322    -341.732
  H     -386.933     565.445    -343.196
  H     -386.716     564.698    -341.600
  H     -394.127     565.668    -349.580
  H     -393.708     566.479    -348.089
  H     -395.319     566.636    -348.746

 3  4  5  6  7  8  9  10  11  12  23  26  30  31  33  0
 6-311+G(2d,p)
 ****
 35  36  37  38 0
 6-311+G(2d,p)
 ****
 1  2  13  14  15  16  17  18  19  20  21  22  24  25  27  28  29 0
 3-21G
 ****
 32  34  39  40  41  42  43  44  45  46  47  48  49 0
 3-21G
 ****


