%nproc=1
%NoSave
%Mem=1900MB
#P OB98/GEN NMR

erre ene a

0 1
  C      581.611    -491.218     354.191
  O      580.200    -490.992     354.324
  P      579.708    -489.952     355.442
  C      579.444    -491.554     357.479
  O      578.801    -490.743     356.503
  C      578.515    -491.758     358.688
  O      578.296    -490.526     359.418
  C      577.121    -492.268     358.302
  O      577.102    -493.683     358.109
  C      576.320    -491.905     359.552
  O      576.549    -492.884     360.571
  C      576.940    -490.565     359.948
  N      572.694    -487.840     360.426
  C      573.142    -488.945     361.142
  N      572.327    -489.388     362.126
  N      574.262    -489.551     360.909
  C      574.984    -489.001     359.897
  C      574.651    -487.908     359.112
  C      573.395    -487.244     359.380
  O      572.947    -486.273     358.769
  N      575.638    -487.646     358.188
  C      576.567    -488.554     358.418
  N      576.198    -489.424     359.432
  O      578.635    -489.052     354.649
  O      580.802    -489.108     356.025
  H      576.301    -493.761     360.180
  H      578.590    -488.163     355.034
  H      571.824    -487.407     360.650
  H      577.497    -488.642     357.885
  H      577.012    -490.435     361.026
  H      575.244    -491.881     359.361
  H      571.468    -488.922     362.399
  H      576.726    -491.723     357.423
  H      572.651    -490.171     362.677
  H      578.982    -492.492     359.350
  H      580.373    -491.081     357.810
  H      579.719    -492.509     357.023
  P      577.627    -494.252     356.699
  C      575.658    -495.894     356.369
  O      577.040    -495.733     356.576
  O      579.201    -494.467     356.990
  O      577.402    -493.344     355.539
  H      579.690    -494.346     356.165
  H      575.450    -496.951     356.150
  H      575.303    -495.291     355.538
  H      575.102    -495.623     357.285
  H      581.786    -491.930     353.412
  H      582.000    -491.596     355.113
  H      582.098    -490.297     353.949

 3  4  5  6  7  8  9  10  11  12  23  26  30  31 0
 6-311+G(2d,p)
 ****
 33  35  36  37  38 0
 6-311+G(2d,p)
 ****
 1  2  13  14  15  16  17  18  19  20  21  22  24  25 0
 3-21G
 ****
 27  28  29  32  34  39  40  41  42  43  44  45  46  47  48  49 0
 3-21G
 ****


