%nproc=1
%NoSave
%Mem=1900MB
#P OB98/GEN NMR

erre ene a

0 1
  C      695.934     475.917    -225.375
  O      694.947     474.930    -225.611
  H      695.908     476.195    -224.320
  H      695.717     476.807    -225.973
  H      696.931     475.539    -225.614
  P      694.894     474.218    -227.042
  C      694.448     471.952    -225.886
  O      695.255     472.670    -226.804
  C      694.406     470.466    -226.252
  O      693.758     470.322    -227.549
  C      695.794     469.796    -226.359
  O      695.627     468.415    -225.999
  C      696.072     469.956    -227.843
  O      697.164     469.189    -228.277
  C      694.674     469.590    -228.392
  N      694.464     469.914    -229.804
  C      693.996     468.904    -230.635
  O      693.741     467.762    -230.268
  N      693.811     469.252    -231.956
  C      694.036     470.486    -232.486
  O      693.831     470.750    -233.661
  C      694.536     471.506    -231.561
  C      694.725     471.183    -230.282
  O      695.669     474.887    -228.125
  O      693.330     474.166    -227.381
  H      693.109     474.875    -228.016
  H      697.003     468.248    -228.063
  H      693.465     468.536    -232.559
  H      694.744     472.497    -231.958
  H      695.084     471.915    -229.569
  H      694.485     468.517    -228.236
  H      696.322     470.987    -228.072
  H      696.539     470.256    -225.709
  H      693.768     469.941    -225.521
  H      693.431     472.365    -225.914
  H      694.850     472.077    -224.872
  P      696.729     467.572    -225.197
  C      695.802     467.920    -222.807
  O      696.854     468.195    -223.709
  O      698.036     467.452    -225.913
  O      696.067     466.125    -224.958
  H      696.774     465.465    -224.858
  H      696.007     468.387    -221.866
  H      695.718     466.862    -222.669
  H      694.884     468.303    -223.202

 6  7  8  9  10  11  12  13  14  15  16  27  31  32  33  34  35 0
 6-311+G(2d,p)
 ****
 36  37 0
 6-311+G(2d,p)
 ****
 1  2  3  4  5  17  18  19  20  21  22  23  24  25 0
 3-21G
 ****
 26  28  29  30  38  39  40  41  42  43  44  45 0
 3-21G
 ****


