%nproc=1
%NoSave
%Mem=1900MB
#P OB98/GEN NMR

erre ene a

0 1
  C      581.044      57.945     613.213
  O      580.123      58.978     612.877
  P      578.913      59.291     613.889
  C      579.434      61.800     613.612
  O      579.165      60.743     614.530
  C      578.755      63.093     614.072
  O      577.331      63.060     613.843
  C      578.911      63.367     615.554
  O      580.227      63.810     615.852
  C      577.810      64.393     615.793
  O      578.248      65.713     615.419
  C      576.712      63.909     614.823
  N      575.609      63.231     615.504
  C      574.547      64.038     615.911
  O      574.587      65.258     615.734
  N      573.472      63.448     616.525
  C      573.462      62.170     616.722
  N      572.372      61.631     617.336
  C      574.576      61.279     616.319
  C      575.603      61.877     615.725
  O      578.589      58.212     614.864
  O      577.683      59.563     612.894
  H      578.949      65.949     616.059
  H      576.856      59.297     613.341
  H      574.519      60.215     616.495
  H      576.466      61.296     615.398
  H      576.285      64.762     614.277
  H      577.518      64.435     616.845
  H      578.696      62.454     616.126
  H      579.182      63.923     613.493
  H      571.635      62.268     617.615
  H      579.080      61.523     612.619
  H      572.250      60.642     617.484
  H      580.517      61.931     613.539
  P      580.940      63.203     617.155
  C      582.373      61.745     615.563
  O      581.595      61.806     616.746
  O      579.697      62.781     618.078
  O      581.842      64.153     617.870
  H      579.932      62.904     619.017
  H      582.988      60.837     615.597
  H      583.025      62.610     615.466
  H      581.711      61.682     614.693
  H      581.783      57.862     612.444
  H      580.520      57.017     613.306
  H      581.520      58.180     614.142

 3  4  5  6  7  8  9  10  11  12  13  23  27  28  29  30  32 0
 6-311+G(2d,p)
 ****
 34  35 0
 6-311+G(2d,p)
 ****
 1  2  14  15  16  17  18  19  20  21  22  24  25  26 0
 3-21G
 ****
 31  33  36  37  38  39  40  41  42  43  44  45  46 0
 3-21G
 ****


