%nproc=1
%NoSave
%Mem=1900MB
#P OB98/GEN NMR

erre ene a

0 1
  C     1394.795    -986.307     453.933
  O     1395.066    -986.245     452.535
  H     1393.997    -985.593     454.168
  H     1395.702    -985.991     454.489
  H     1394.509    -987.303     454.246
  P     1395.855    -987.459     451.858
  C     1394.208    -987.530     449.873
  O     1395.587    -987.412     450.276
  C     1393.690    -986.190     449.324
  O     1394.685    -985.605     448.434
  C     1392.402    -986.362     448.479
  O     1391.193    -986.355     449.243
  C     1392.497    -985.155     447.541
  O     1391.869    -983.992     448.135
  C     1393.994    -984.948     447.368
  N     1393.779    -984.685     442.266
  C     1392.906    -984.105     443.207
  N     1391.859    -983.440     442.694
  N     1393.105    -984.240     444.506
  C     1394.121    -985.029     444.825
  C     1395.018    -985.649     443.992
  C     1394.900    -985.483     442.576
  O     1395.610    -985.919     441.677
  N     1395.934    -986.424     444.692
  C     1395.536    -986.334     445.935
  N     1394.478    -985.429     446.077
  O     1395.023    -988.750     452.316
  O     1397.301    -987.580     452.252
  H     1391.970    -983.250     447.515
  H     1395.627    -989.501     452.401
  H     1393.615    -984.531     441.275
  H     1395.966    -986.838     446.780
  H     1394.253    -983.870     447.413
  H     1391.975    -985.355     446.616
  H     1391.637    -983.379     441.718
  H     1392.451    -987.298     447.866
  H     1391.116    -983.175     443.347
  H     1393.529    -985.483     450.131
  H     1393.653    -987.816     450.759
  H     1394.089    -988.312     449.108
  P     1389.934    -987.153     448.764
  C     1389.468    -987.943     451.231
  O     1388.967    -987.391     450.021
  O     1390.494    -988.637     448.464
  O     1389.193    -986.572     447.589
  H     1390.648    -988.743     447.510
  H     1388.673    -988.022     451.943
  H     1390.235    -987.308     451.622
  H     1389.873    -988.915     451.039

 6  7  8  9  10  11  12  13  14  15  26  29  33  34 0
 6-311+G(2d,p)
 ****
 36  38  39  40  41 0
 6-311+G(2d,p)
 ****
 1  2  3  4  5  16  17  18  19  20  21  22  23  24  25 0
 3-21G
 ****
 27  28  30  31  32  35  37  42  43  44  45  46  47 0
 3-21G
 ****
 48  49 0
 3-21G
 ****


