%nproc=1
%NoSave
%Mem=1900MB
#P OB98/GEN NMR

erre ene a

0 1
  C      -78.494      96.809     233.915
  O      -78.670      98.213     234.016
  P      -79.891      98.743     234.919
  C      -78.712      97.905     237.077
  O      -79.875      97.862     236.260
  C      -78.992      97.367     238.484
  O      -77.748      97.318     239.224
  C      -79.986      98.211     239.283
  O      -80.786      97.316     240.063
  C      -79.099      99.019     240.211
  O      -79.802      99.434     241.383
  C      -77.951      98.031     240.461
  N      -76.732      98.703     240.895
  C      -76.389      98.587     242.250
  O      -77.147      98.007     243.025
  N      -75.232      99.175     242.694
  C      -74.532      99.904     241.882
  N      -73.389     100.463     242.369
  C      -74.922     100.155     240.479
  C      -76.007      99.515     240.053
  O      -81.175      98.200     234.138
  O      -79.925     100.223     235.112
  H      -80.084      98.633     241.872
  H      -81.931      98.811     234.240
  H      -74.317     100.803     239.858
  H      -76.350      99.617     239.031
  H      -78.232      97.292     241.226
  H      -78.734      99.914     239.695
  H      -80.633      98.825     238.649
  H      -79.358      96.338     238.389
  H      -73.154     100.291     243.340
  H      -78.377      98.949     237.168
  H      -72.781     101.050     241.813
  H      -77.907      97.332     236.595
  P      -82.301      97.752     240.366
  C      -83.405      95.600     239.509
  O      -83.185      96.979     239.274
  O      -82.326      99.250     239.796
  O      -82.779      97.702     241.781
  H      -83.188      99.658     239.982
  H      -84.127      95.232     238.770
  H      -83.821      95.440     240.509
  H      -82.472      95.043     239.389
  H      -77.652      96.599     233.289
  H      -79.372      96.369     233.491
  H      -78.325      96.400     234.889

 3  4  5  6  7  8  9  10  11  12  13  21  23  27  28  29  30  32 0
 6-311+G(2d,p)
 ****
 34  35 0
 6-311+G(2d,p)
 ****
 1  2  14  15  16  17  18  19  20  22  24  25  26 0
 3-21G
 ****
 31  33  36  37  38  39  40  41  42  43  44  45  46 0
 3-21G
 ****


