%nproc=1
%NoSave
%Mem=1900MB
#P OB98/GEN NMR

erre ene a

0 1
  C      516.947       3.093     547.048
  O      518.238       2.996     546.476
  P      518.467       3.693     545.049
  C      517.079       1.919     543.740
  O      517.228       3.283     544.126
  C      516.509       1.833     542.324
  O      515.235       2.512     542.259
  C      517.372       2.480     541.253
  O      518.492       1.672     540.935
  C      516.354       2.637     540.132
  O      516.171       1.379     539.454
  C      515.074       3.010     540.904
  N      512.874       6.973     538.514
  C      512.964       5.660     538.198
  N      513.582       4.671     538.870
  C      514.154       5.150     539.994
  C      514.172       6.458     540.433
  C      513.493       7.399     539.650
  N      513.412       8.734     539.969
  N      514.873       6.571     541.615
  C      515.267       5.342     541.884
  N      514.843       4.441     540.940
  O      519.684       2.856     544.424
  O      518.765       5.159     545.108
  H      515.848       0.736     540.118
  H      520.257       3.430     543.882
  H      512.462       5.366     537.272
  H      515.853       5.051     542.748
  H      514.179       2.544     540.486
  H      516.651       3.371     539.378
  H      517.717       3.467     541.582
  H      516.343       0.774     542.090
  H      516.393       1.415     544.427
  H      513.037       9.363     539.279
  H      513.991       9.073     540.736
  H      518.054       1.425     543.801
  P      519.743       2.382     540.227
  C      518.981       1.423     537.976
  O      519.261       2.600     538.710
  O      520.781       1.173     540.101
  O      520.247       3.602     540.935
  H      520.365       0.381     539.724
  H      518.617       1.715     536.986
  H      518.203       0.834     538.482
  H      519.883       0.822     537.857
  H      516.936       2.588     547.991
  H      516.232       2.641     546.393
  H      516.697       4.123     547.192

 3  4  5  6  7  8  9  10  11  12  22  25  29  30  31  32 0
 6-311+G(2d,p)
 ****
 33  36  37 0
 6-311+G(2d,p)
 ****
 1  2  13  14  15  16  17  18  19  20  21  23  24  26 0
 3-21G
 ****
 27  28  34  35  38  39  40  41  42  43  44  45  46  47  48 0
 3-21G
 ****


