%nproc=1
%NoSave
%Mem=1900MB
#P OB98/GEN NMR

erre ene a

0 1
  C     -147.960     180.279     -12.696
  O     -149.296     179.957     -12.343
  P     -150.443     179.844     -13.458
  C     -152.187     180.582     -11.719
  O     -151.792     179.570     -12.637
  C     -153.386     180.111     -10.902
  O     -154.512     179.949     -11.795
  C     -153.231     178.761     -10.204
  O     -152.574     178.819      -8.946
  C     -154.690     178.382      -9.991
  O     -155.219     179.096      -8.859
  C     -155.344     178.877     -11.284
  N     -157.838     174.614     -12.615
  C     -157.977     175.453     -11.565
  N     -157.261     176.557     -11.270
  C     -156.342     176.791     -12.221
  C     -156.085     176.031     -13.349
  C     -156.885     174.891     -13.535
  N     -156.756     174.049     -14.619
  N     -155.049     176.578     -14.082
  C     -154.702     177.657     -13.410
  N     -155.458     177.832     -12.285
  O     -150.144     178.885     -14.557
  O     -150.638     181.343     -13.977
  H     -156.163     178.862      -8.792
  H     -151.116     181.342     -14.829
  H     -158.769     175.200     -10.863
  H     -153.909     178.333     -13.699
  H     -156.344     179.292     -11.116
  H     -154.828     177.317      -9.787
  H     -152.758     178.023     -10.863
  H     -153.642     180.897     -10.179
  H     -152.470     181.474     -12.291
  H     -157.455     173.334     -14.737
  H     -156.161     174.345     -15.381
  H     -151.345     180.842     -11.073
  P     -151.159     178.065      -8.821
  C     -151.531     177.459      -6.304
  O     -150.763     178.141      -7.268
  O     -150.118     178.541      -9.773
  O     -151.558     176.528      -9.025
  H     -152.098     176.144      -8.316
  H     -151.010     177.504      -5.344
  H     -151.663     176.409      -6.578
  H     -152.508     177.937      -6.193
  H     -147.354     180.305     -11.814
  H     -147.938     181.237     -13.172
  H     -147.580     179.538     -13.368

 3  4  5  6  7  8  9  10  11  12  22  25  29  30  31  32 0
 6-311+G(2d,p)
 ****
 33  36  37 0
 6-311+G(2d,p)
 ****
 1  2  13  14  15  16  17  18  19  20  21  23  24  26 0
 3-21G
 ****
 27  28  34  35  38  39  40  41  42  43  44  45  46  47  48 0
 3-21G
 ****


