%nproc=1
%NoSave
%Mem=1900MB
#P OB98/GEN NMR

erre ene a

0 1
  C      226.449    -841.589     -11.510
  O      227.063    -840.289     -11.565
  P      226.728    -839.226     -10.405
  C      226.061    -837.364     -12.103
  O      226.828    -837.723     -10.975
  C      226.890    -836.576     -13.126
  O      226.955    -835.164     -12.738
  C      228.343    -837.050     -13.280
  O      228.730    -836.831     -14.642
  C      229.102    -836.114     -12.361
  O      230.502    -836.055     -12.645
  C      228.340    -834.805     -12.619
  N      228.541    -833.785     -11.586
  C      229.225    -832.626     -11.941
  O      229.744    -832.427     -13.050
  N      229.345    -831.676     -10.960
  C      228.895    -831.786      -9.666
  O      229.061    -830.923      -8.820
  C      228.193    -833.061      -9.358
  C      228.057    -833.979     -10.317
  O      228.045    -839.321      -9.481
  O      225.508    -839.505      -9.589
  H      230.820    -836.968     -12.707
  H      227.783    -839.374      -8.539
  H      229.839    -830.830     -11.194
  H      227.819    -833.173      -8.349
  H      227.524    -834.889     -10.103
  H      228.642    -834.402     -13.597
  H      228.996    -836.459     -11.324
  H      228.474    -838.111     -13.014
  H      226.386    -836.609     -14.092
  H      225.213    -836.751     -11.799
  H      225.670    -838.286     -12.580
  P      228.448    -837.996     -15.723
  C      230.962    -838.601     -16.082
  O      229.763    -838.110     -16.638
  O      227.389    -837.241     -16.675
  O      227.910    -839.259     -15.144
  H      227.664    -836.337     -16.896
  H      230.780    -839.457     -15.420
  H      231.480    -837.821     -15.539
  H      231.603    -838.938     -16.908
  H      226.772    -842.172     -12.347
  H      225.385    -841.482     -11.539
  H      226.733    -842.080     -10.603

 3  4  5  6  7  8  9  10  11  12  13  23  28  29  30  31  32 0
 6-311+G(2d,p)
 ****
 33  34 0
 6-311+G(2d,p)
 ****
 1  2  14  15  16  17  18  19  20  21  22  24  25  26 0
 3-21G
 ****
 27  35  36  37  38  39  40  41  42  43  44  45 0
 3-21G
 ****


