%nproc=1
%NoSave
%Mem=1900MB
#P OB98/GEN NMR

erre ene a

0 1
  C     -118.739    -277.987      37.434
  O     -119.865    -278.846      37.616
  P     -121.010    -279.100      36.533
  C     -123.298    -277.969      35.891
  O     -122.166    -278.016      36.752
  C     -124.050    -276.635      36.040
  O     -124.567    -276.545      37.407
  C     -123.145    -275.419      35.816
  O     -123.760    -274.386      35.049
  C     -122.698    -275.064      37.226
  O     -122.214    -273.734      37.347
  C     -123.938    -275.411      38.049
  N     -124.515    -274.089      42.949
  C     -124.880    -273.403      41.807
  N     -125.457    -272.192      41.987
  N     -124.674    -273.847      40.597
  C     -124.018    -275.027      40.554
  C     -123.596    -275.799      41.617
  C     -123.869    -275.319      42.954
  O     -123.589    -275.899      43.998
  N     -122.970    -276.945      41.186
  C     -122.999    -276.859      39.869
  N     -123.632    -275.711      39.436
  O     -121.443    -280.517      36.360
  O     -120.333    -278.626      35.146
  H     -122.984    -273.130      37.283
  H     -120.721    -279.191      34.447
  H     -124.719    -273.708      43.858
  H     -122.596    -277.590      39.184
  H     -124.658    -274.588      38.071
  H     -121.865    -275.732      37.486
  H     -125.531    -271.736      42.886
  H     -122.266    -275.693      35.219
  H     -125.516    -271.602      41.156
  H     -124.905    -276.637      35.354
  H     -123.944    -278.799      36.195
  H     -123.001    -278.140      34.857
  P     -123.106    -273.441      33.937
  C     -121.962    -271.153      33.814
  O     -122.464    -272.166      34.661
  O     -124.350    -272.819      33.142
  O     -122.183    -274.149      32.989
  H     -124.311    -273.093      32.201
  H     -121.325    -270.479      34.402
  H     -122.789    -270.576      33.399
  H     -121.365    -271.578      33.000
  H     -118.132    -278.003      38.315
  H     -119.078    -276.989      37.252
  H     -118.163    -278.326      36.598

 3  4  5  6  7  8  9  10  11  12  23  26  30  31 0
 6-311+G(2d,p)
 ****
 33  35  36  37  38 0
 6-311+G(2d,p)
 ****
 1  2  13  14  15  16  17  18  19  20  21  22  24  25 0
 3-21G
 ****
 27  28  29  32  34  39  40  41  42  43  44  45  46  47  48  49 0
 3-21G
 ****


