%nproc=1
%NoSave
%Mem=1900MB
#P OB98/GEN NMR

erre ene a

0 1
  C     -175.720    -203.570     198.194
  O     -177.051    -203.224     198.528
  H     -175.734    -204.503     197.623
  H     -175.130    -203.722     199.102
  H     -175.269    -202.787     197.579
  P     -177.247    -201.860     199.353
  C     -176.994    -203.214     201.545
  O     -177.810    -202.339     200.777
  C     -177.796    -203.822     202.691
  O     -177.014    -204.810     203.389
  C     -178.238    -202.821     203.751
  O     -179.398    -202.120     203.332
  C     -178.533    -203.752     204.919
  O     -179.828    -204.361     204.740
  C     -177.430    -204.820     204.783
  N     -175.699    -204.304     209.588
  C     -176.952    -204.333     209.082
  N     -177.334    -204.429     207.791
  C     -176.268    -204.502     206.981
  C     -174.931    -204.486     207.351
  C     -174.657    -204.393     208.727
  N     -173.378    -204.375     209.239
  N     -174.115    -204.577     206.242
  C     -174.944    -204.701     205.227
  N     -176.259    -204.624     205.617
  O     -178.020    -200.792     198.660
  O     -175.727    -201.488     199.693
  H     -179.868    -204.700     203.825
  H     -175.217    -202.291     199.902
  H     -177.754    -204.271     209.813
  H     -174.645    -204.863     204.197
  H     -177.807    -205.824     205.005
  H     -178.558    -203.226     205.875
  H     -177.422    -202.146     204.030
  H     -178.662    -204.340     202.257
  H     -176.125    -202.672     201.942
  H     -173.270    -204.133     210.211
  H     -172.608    -204.314     208.589
  H     -176.634    -204.000     200.875
  P     -179.428    -200.517     203.333
  C     -180.444    -200.404     205.692
  O     -180.620    -200.082     204.316
  O     -179.479    -199.886     201.984
  O     -178.117    -200.089     204.141
  H     -177.714    -199.296     203.738
  H     -181.294    -200.069     206.248
  H     -179.563    -199.921     206.061
  H     -180.342    -201.464     205.800

 6  7  8  9  10  11  12  13  14  15  25  28  32  33  34  35 0
 6-311+G(2d,p)
 ****
 36  39  40 0
 6-311+G(2d,p)
 ****
 1  2  3  4  5  16  17  18  19  20  21  22  23  24 0
 3-21G
 ****
 26  27  29  30  31  37  38  41  42  43  44  45  46  47 0
 3-21G
 ****
 48 0
 3-21G
 ****


