%nproc=1
%NoSave
%Mem=1900MB
#P OB98/GEN NMR

erre ene a

0 1
  C     -888.733     435.121    -178.238
  O     -887.466     434.769    -177.674
  P     -886.726     433.477    -178.263
  C     -888.250     431.665    -177.135
  O     -886.974     432.310    -177.204
  C     -888.128     430.315    -176.435
  O     -887.323     429.389    -177.241
  C     -887.422     430.377    -175.078
  O     -888.276     430.930    -174.092
  C     -887.064     428.908    -174.876
  O     -888.192     428.178    -174.390
  C     -886.704     428.460    -176.308
  N     -885.270     428.354    -176.540
  C     -884.640     427.286    -175.893
  O     -885.219     426.511    -175.142
  N     -883.290     427.174    -176.108
  C     -882.532     428.018    -176.881
  O     -881.331     427.854    -177.055
  C     -883.250     429.141    -177.507
  C     -884.566     429.263    -177.310
  O     -885.193     433.880    -178.060
  O     -887.118     433.169    -179.672
  H     -885.039     434.396    -177.256
  H     -888.875     428.213    -175.095
  H     -882.811     426.417    -175.665
  H     -882.672     429.834    -178.097
  H     -885.108     430.078    -177.753
  H     -887.166     427.486    -176.520
  H     -886.257     428.775    -174.144
  H     -886.510     430.981    -175.162
  H     -889.124     429.889    -176.327
  H     -888.631     431.511    -178.148
  H     -888.947     432.313    -176.605
  P     -887.991     432.442    -173.644
  C     -886.188     431.686    -171.902
  O     -887.391     432.372    -172.150
  O     -889.479     432.997    -173.452
  O     -887.164     433.217    -174.620
  H     -890.058     432.374    -172.970
  H     -885.789     432.040    -170.948
  H     -885.447     431.887    -172.683
  H     -886.369     430.614    -171.824
  H     -889.108     435.997    -177.752
  H     -889.422     434.314    -178.100
  H     -888.616     435.315    -179.284

 3  4  5  6  7  8  9  10  11  12  13  24  28  29  30  31  32 0
 6-311+G(2d,p)
 ****
 33  34 0
 6-311+G(2d,p)
 ****
 1  2  14  15  16  17  18  19  20  21  22  23  25  26  27 0
 3-21G
 ****
 35  36  37  38  39  40  41  42  43  44  45 0
 3-21G
 ****


