%nproc=1
%NoSave
%Mem=1900MB
#P OB98/GEN NMR

erre ene a

0 1
  C      -90.307    -203.580     -31.238
  O      -91.096    -204.398     -32.081
  H      -90.489    -203.866     -30.200
  H      -90.584    -202.529     -31.367
  H      -89.246    -203.717     -31.464
  P      -91.015    -204.086     -33.654
  C      -93.313    -202.885     -33.670
  O      -91.916    -202.779     -33.901
  C      -94.094    -202.428     -34.898
  O      -93.981    -200.999     -35.075
  C      -93.641    -203.069     -36.206
  O      -94.241    -204.340     -36.384
  C      -94.125    -202.042     -37.221
  O      -95.537    -202.201     -37.484
  C      -93.852    -200.717     -36.495
  N      -90.904    -198.728     -40.079
  C      -92.153    -199.305     -40.172
  N      -92.691    -199.392     -41.411
  N      -92.819    -199.771     -39.147
  C      -92.138    -199.670     -37.982
  C      -90.895    -199.122     -37.760
  C      -90.195    -198.563     -38.895
  O      -89.122    -197.964     -38.863
  N      -90.554    -199.190     -36.431
  C      -91.569    -199.806     -35.862
  N      -92.555    -200.123     -36.763
  O      -91.882    -205.261     -34.313
  O      -89.638    -204.045     -34.229
  H      -96.030    -202.069     -36.655
  H      -91.457    -205.535     -35.148
  H      -90.453    -198.360     -40.896
  H      -91.648    -200.038     -34.806
  H      -94.601    -199.956     -36.741
  H      -93.619    -202.156     -38.183
  H      -92.125    -199.330     -42.244
  H      -92.547    -203.135     -36.254
  H      -93.574    -199.883     -41.485
  H      -95.154    -202.644     -34.714
  H      -93.579    -202.254     -32.814
  H      -93.560    -203.925     -33.439
  P      -93.497    -205.406     -37.323
  C      -95.392    -205.633     -39.084
  O      -94.056    -205.225     -38.816
  O      -94.125    -206.799     -36.850
  O      -92.009    -205.419     -37.193
  H      -93.479    -207.289     -36.312
  H      -95.620    -205.452     -40.114
  H      -96.066    -205.077     -38.466
  H      -95.495    -206.677     -38.874

 6  7  8  9  10  11  12  13  14  15  26  29  33  34 0
 6-311+G(2d,p)
 ****
 36  38  39  40  41 0
 6-311+G(2d,p)
 ****
 1  2  3  4  5  16  17  18  19  20  21  22  23  24  25 0
 3-21G
 ****
 27  28  30  31  32  35  37  42  43  44  45  46  47 0
 3-21G
 ****
 48  49 0
 3-21G
 ****


