%nproc=1
%NoSave
%Mem=1900MB
#P OB98/GEN NMR

erre ene a

0 1
  C     -197.167     -94.866    -139.317
  O     -195.790     -95.137    -139.486
  H     -197.285     -94.145    -138.503
  H     -197.716     -95.776    -139.061
  H     -197.579     -94.430    -140.232
  P     -195.371     -96.355    -140.444
  C     -193.946     -95.243    -142.290
  O     -195.238     -95.718    -141.914
  C     -194.033     -94.333    -143.518
  O     -194.689     -93.096    -143.174
  C     -192.679     -93.924    -144.074
  O     -191.960     -94.979    -144.680
  C     -193.019     -92.683    -144.887
  O     -193.446     -92.973    -146.214
  C     -194.197     -92.085    -144.078
  N     -193.815     -90.866    -143.376
  C     -193.560     -89.760    -144.177
  O     -193.625     -89.782    -145.408
  N     -193.187     -88.620    -143.523
  C     -192.995     -88.499    -142.177
  O     -192.617     -87.458    -141.650
  C     -193.254     -89.710    -141.381
  C     -193.647     -90.823    -142.006
  O     -196.257     -97.563    -140.386
  O     -193.852     -96.651    -140.040
  H     -194.237     -93.542    -146.142
  H     -193.565     -97.539    -140.363
  H     -193.007     -87.804    -144.087
  H     -193.112     -89.652    -140.310
  H     -193.843     -91.730    -141.442
  H     -195.030     -91.838    -144.749
  H     -192.163     -92.009    -144.967
  H     -192.058     -93.580    -143.238
  H     -194.638     -94.838    -144.280
  H     -193.329     -96.114    -142.531
  H     -193.492     -94.709    -141.449
  P     -190.623     -95.598    -144.060
  C     -190.824     -98.180    -143.844
  O     -191.020     -96.914    -143.224
  O     -189.651     -94.634    -143.461
  O     -189.930     -96.229    -145.375
  H     -188.964     -96.139    -145.267
  H     -191.130     -98.956    -143.174
  H     -189.789     -98.303    -144.084
  H     -191.406     -98.232    -144.740

 6  7  8  9  10  11  12  13  14  15  16  26  31  32  33  34  35 0
 6-311+G(2d,p)
 ****
 36  37 0
 6-311+G(2d,p)
 ****
 1  2  3  4  5  17  18  19  20  21  22  23  24  25 0
 3-21G
 ****
 27  28  29  30  38  39  40  41  42  43  44  45 0
 3-21G
 ****


