%nproc=1
%NoSave
%Mem=1900MB
#P OB98/GEN NMR

erre ene a

0 1
  C      -29.031      10.002    -397.928
  O      -29.640       8.836    -397.424
  H      -29.527      10.283    -398.861
  H      -27.976       9.804    -398.137
  H      -29.114      10.835    -397.224
  P      -29.438       8.464    -395.883
  C      -27.302       8.231    -394.449
  O      -27.932       7.934    -395.688
  C      -25.805       7.925    -394.489
  O      -25.136       8.880    -395.342
  C      -25.150       8.029    -393.112
  O      -25.207       6.838    -392.339
  C      -23.706       8.374    -393.475
  O      -22.922       7.188    -393.692
  C      -23.848       9.167    -394.780
  N      -20.710      13.044    -393.654
  C      -20.480      11.685    -393.552
  N      -19.276      11.324    -393.055
  N      -21.359      10.780    -393.891
  C      -22.550      11.293    -394.278
  C      -22.901      12.617    -394.396
  C      -21.899      13.616    -394.090
  O      -22.049      14.830    -394.180
  N      -24.215      12.759    -394.779
  C      -24.675      11.521    -394.803
  N      -23.682      10.597    -394.587
  O      -30.302       7.125    -395.703
  O      -29.881       9.512    -394.904
  H      -23.027       6.608    -392.914
  H      -30.657       7.084    -394.797
  H      -19.989      13.695    -393.403
  H      -25.700      11.241    -395.018
  H      -23.099       8.857    -395.520
  H      -23.220       8.929    -392.669
  H      -18.599      11.979    -392.699
  H      -25.566       8.867    -392.542
  H      -19.140      10.350    -392.788
  H      -25.650       6.933    -394.935
  H      -27.791       7.616    -393.695
  H      -27.472       9.277    -394.179
  P      -25.170       6.895    -390.744
  C      -23.624       8.073    -388.978
  O      -23.811       7.595    -390.294
  O      -24.952       5.362    -390.336
  O      -26.386       7.478    -390.093
  H      -25.798       4.949    -390.086
  H      -22.649       8.504    -388.890
  H      -23.719       7.262    -388.287
  H      -24.363       8.816    -388.760

 6  7  8  9  10  11  12  13  14  15  26  29  33  34 0
 6-311+G(2d,p)
 ****
 36  38  39  40  41 0
 6-311+G(2d,p)
 ****
 1  2  3  4  5  16  17  18  19  20  21  22  23  24  25 0
 3-21G
 ****
 27  28  30  31  32  35  37  42  43  44  45  46  47 0
 3-21G
 ****
 48  49 0
 3-21G
 ****


