%nproc=1
%NoSave
%Mem=1900MB
#P OB98/GEN NMR

erre ene a

0 1
  C       92.435     481.408    -173.684
  O       93.188     480.731    -172.700
  P       94.496     479.893    -173.090
  C       93.301     477.636    -173.315
  O       94.279     478.379    -172.604
  C       93.145     476.229    -172.739
  O       94.342     475.460    -173.014
  C       92.904     476.191    -171.223
  O       91.967     475.137    -170.966
  C       94.267     475.840    -170.664
  O       94.191     475.273    -169.365
  C       94.789     474.903    -171.760
  N       96.238     474.763    -171.727
  C       96.757     473.772    -170.895
  O       96.017     473.153    -170.129
  N       98.110     473.521    -170.938
  C       98.887     474.317    -171.610
  N      100.208     473.990    -171.681
  C       98.392     475.524    -172.298
  C       97.072     475.665    -172.355
  O       95.791     480.502    -172.663
  O       94.422     479.771    -174.690
  H       95.265     480.086    -175.072
  H       93.620     474.475    -169.400
  H       99.092     476.222    -172.739
  H       96.612     476.501    -172.869
  H       94.337     473.909    -171.665
  H       94.886     476.748    -170.608
  H       92.499     477.134    -170.835
  H       92.317     475.736    -173.265
  H      100.501     473.135    -171.224
  H       93.618     477.563    -174.358
  H      100.813     474.353    -172.418
  H       92.342     478.168    -173.299
  P       90.406     475.509    -170.864
  C       90.024     475.412    -168.295
  O       89.819     474.798    -169.550
  O       89.779     474.612    -172.039
  O       90.048     476.946    -171.078
  H       88.947     475.022    -172.343
  H       89.622     474.763    -167.518
  H       89.502     476.379    -168.250
  H       91.094     475.564    -168.108
  H       91.607     481.904    -173.221
  H       92.072     480.703    -174.403
  H       93.055     482.130    -174.173

 3  4  5  6  7  8  9  10  11  12  13  24  27  28  29  30  32 0
 6-311+G(2d,p)
 ****
 34  35 0
 6-311+G(2d,p)
 ****
 1  2  14  15  16  17  18  19  20  21  22  23  25  26 0
 3-21G
 ****
 31  33  36  37  38  39  40  41  42  43  44  45  46 0
 3-21G
 ****


