%nproc=1
%NoSave
%Mem=1900MB
#P OB98/GEN NMR

erre ene a

0 1
  C       53.794    -161.949      28.662
  O       54.617    -163.060      28.961
  H       52.981    -161.911      29.393
  H       53.358    -162.059      27.665
  H       54.362    -161.017      28.722
  P       55.947    -163.292      28.096
  C       56.498    -163.865      25.650
  O       55.470    -163.690      26.615
  C       56.184    -165.052      24.740
  O       56.454    -166.282      25.464
  C       54.726    -165.095      24.264
  O       54.703    -165.560      22.915
  C       54.090    -166.132      25.171
  O       52.963    -166.762      24.567
  C       55.258    -167.086      25.425
  N       52.047    -169.901      28.129
  C       51.923    -169.383      26.855
  N       50.762    -169.627      26.208
  N       52.857    -168.683      26.264
  C       53.971    -168.526      27.021
  C       54.214    -168.988      28.292
  C       53.168    -169.750      28.942
  O       53.215    -170.224      30.071
  N       55.458    -168.602      28.732
  C       55.961    -167.904      27.729
  N       55.093    -167.820      26.670
  O       56.947    -164.229      28.695
  O       56.548    -161.822      27.906
  H       52.799    -167.595      25.062
  H       57.278    -161.664      28.533
  H       51.293    -170.426      28.540
  H       56.938    -167.436      27.718
  H       55.367    -167.834      24.629
  H       53.763    -165.657      26.104
  H       50.006    -170.172      26.594
  H       54.226    -164.124      24.334
  H       50.657    -169.276      25.262
  H       56.874    -165.029      23.888
  H       57.440    -164.048      26.182
  H       56.598    -162.951      25.055
  P       55.006    -164.519      21.733
  C       53.860    -162.355      20.930
  O       53.677    -163.660      21.468
  O       55.649    -165.093      20.514
  O       55.970    -163.449      22.444
  H       56.575    -163.073      21.773
  H       52.907    -161.886      20.799
  H       54.356    -162.425      19.984
  H       54.455    -161.772      21.602

 6  7  8  9  10  11  12  13  14  15  26  29  33  34 0
 6-311+G(2d,p)
 ****
 36  38  39  40  41 0
 6-311+G(2d,p)
 ****
 1  2  3  4  5  16  17  18  19  20  21  22  23  24  25 0
 3-21G
 ****
 27  28  30  31  32  35  37  42  43  44  45  46  47 0
 3-21G
 ****
 48  49 0
 3-21G
 ****


