%nproc=1
%NoSave
%Mem=1900MB
#P OB98/GEN NMR

erre ene a

0 1
  C     -369.760      11.994    -176.655
  O     -370.845      12.479    -177.454
  P     -370.586      13.809    -178.316
  C     -370.878      12.766    -180.688
  O     -371.371      13.674    -179.707
  C     -372.009      12.331    -181.628
  O     -372.936      11.458    -180.955
  C     -372.847      13.494    -182.126
  O     -372.173      14.186    -183.162
  C     -374.127      12.796    -182.581
  O     -374.050      12.394    -183.959
  C     -374.192      11.561    -181.654
  N     -375.313      11.614    -180.721
  C     -376.578      11.413    -181.276
  O     -376.708      11.227    -182.489
  N     -377.672      11.458    -180.444
  C     -377.515      11.707    -179.180
  N     -378.636      11.741    -178.406
  C     -376.192      11.949    -178.561
  C     -375.144      11.896    -179.382
  O     -369.047      13.671    -178.746
  O     -370.842      15.076    -177.567
  H     -373.190      11.938    -184.059
  H     -368.636      14.554    -178.805
  H     -376.110      12.160    -177.502
  H     -374.135      12.062    -179.016
  H     -374.294      10.642    -182.248
  H     -374.996      13.452    -182.488
  H     -373.075      14.178    -181.297
  H     -371.568      11.792    -182.478
  H     -379.520      11.569    -178.863
  H     -370.442      11.887    -180.203
  H     -378.625      11.931    -177.417
  H     -370.067      13.252    -181.245
  P     -371.331      15.493    -182.768
  C     -369.665      15.013    -184.672
  O     -370.587      15.935    -184.126
  O     -370.119      14.861    -181.921
  O     -372.038      16.565    -182.013
  H     -369.575      15.568    -181.535
  H     -369.396      15.338    -185.678
  H     -370.103      14.010    -184.724
  H     -368.757      14.990    -184.057
  H     -370.066      11.109    -176.137
  H     -369.477      12.743    -175.945
  H     -368.926      11.767    -177.286

 3  4  5  6  7  8  9  10  11  12  13  21  23  27  28  29  30  32 0
 6-311+G(2d,p)
 ****
 34  35 0
 6-311+G(2d,p)
 ****
 1  2  14  15  16  17  18  19  20  22  24  25  26 0
 3-21G
 ****
 31  33  36  37  38  39  40  41  42  43  44  45  46 0
 3-21G
 ****


