%nproc=1
%NoSave
%Mem=1900MB
#P OB98/GEN NMR

erre ene a

0 1
  C      102.376    -620.034    -229.747
  O      101.362    -621.019    -229.823
  H      103.213    -620.442    -229.176
  H      102.003    -619.147    -229.232
  H      102.731    -619.764    -230.746
  P      100.078    -620.734    -230.738
  C      100.421    -622.715    -232.354
  O      100.410    -621.303    -232.197
  C       99.601    -623.107    -233.582
  O       99.963    -622.278    -234.707
  C       99.827    -624.545    -234.040
  O       99.147    -625.459    -233.203
  C       99.308    -624.472    -235.467
  O       97.877    -624.570    -235.495
  C       99.779    -623.069    -235.903
  N      101.000    -623.104    -236.704
  C      100.887    -623.631    -237.989
  O       99.835    -624.083    -238.443
  N      102.036    -623.647    -238.732
  C      103.282    -623.305    -238.286
  O      104.296    -623.425    -238.966
  C      103.346    -622.780    -236.918
  C      102.222    -622.704    -236.201
  O       99.558    -619.336    -230.707
  O       98.988    -621.772    -230.190
  H       97.539    -623.863    -234.909
  H       98.330    -621.299    -229.652
  H      101.975    -624.036    -239.660
  H      104.315    -622.484    -236.534
  H      102.252    -622.322    -235.187
  H       98.997    -622.573    -236.492
  H       99.695    -625.281    -236.084
  H      100.902    -624.766    -234.063
  H       98.539    -622.930    -233.357
  H       99.980    -623.173    -231.460
  H      101.459    -623.055    -232.452
  P       99.780    -626.901    -232.916
  C       99.953    -627.026    -230.358
  O      100.651    -626.793    -231.572
  O      100.480    -627.536    -234.074
  O       98.529    -627.786    -232.457
  H       98.413    -628.533    -233.077
  H      100.628    -626.928    -229.534
  H       99.542    -628.014    -230.367
  H       99.163    -626.312    -230.258

 6  7  8  9  10  11  12  13  14  15  16  26  31  32  33  34  35 0
 6-311+G(2d,p)
 ****
 36  37 0
 6-311+G(2d,p)
 ****
 1  2  3  4  5  17  18  19  20  21  22  23  24  25 0
 3-21G
 ****
 27  28  29  30  38  39  40  41  42  43  44  45 0
 3-21G
 ****


