%nproc=1
%NoSave
%Mem=1900MB
#P OB98/GEN NMR

erre ene a

0 1
  C      731.111     305.362    -247.703
  O      732.516     305.521    -247.709
  H      730.861     304.489    -247.090
  H      730.743     305.187    -248.722
  H      730.637     306.239    -247.266
  P      733.097     306.726    -248.591
  C      733.061     305.493    -250.873
  O      732.470     306.499    -250.050
  C      732.297     305.350    -252.183
  O      730.979     304.811    -251.939
  C      732.080     306.662    -252.931
  O      733.223     306.990    -253.709
  C      730.897     306.301    -253.815
  O      731.362     305.582    -254.982
  C      730.064     305.372    -252.918
  N      725.296     307.213    -253.307
  C      726.168     306.813    -254.241
  N      727.446     306.377    -254.073
  C      727.774     306.387    -252.761
  C      726.981     306.769    -251.694
  C      725.671     307.194    -252.004
  N      724.772     307.607    -251.037
  N      727.660     306.638    -250.511
  C      728.834     306.134    -250.853
  N      728.962     305.992    -252.209
  O      734.576     306.916    -248.531
  O      732.232     307.957    -248.031
  H      730.566     305.226    -255.422
  H      731.308     307.683    -247.893
  H      725.813     306.839    -255.266
  H      729.596     305.821    -250.151
  H      729.638     304.527    -253.479
  H      730.356     307.184    -254.181
  H      731.789     307.476    -252.251
  H      732.839     304.621    -252.814
  H      733.069     304.535    -250.345
  H      723.940     308.079    -251.361
  H      725.116     307.717    -250.093
  H      734.093     305.787    -251.066
  P      733.517     308.507    -254.154
  C      732.681     308.333    -256.582
  O      732.420     308.825    -255.281
  O      734.928     308.771    -254.542
  O      733.036     309.387    -252.903
  H      733.412     310.279    -252.968
  H      731.880     308.610    -257.235
  H      732.763     307.267    -256.550
  H      733.597     308.750    -256.944

 6  7  8  9  10  11  12  13  14  15  25  28  32  33  34  35 0
 6-311+G(2d,p)
 ****
 36  39  40 0
 6-311+G(2d,p)
 ****
 1  2  3  4  5  16  17  18  19  20  21  22  23  24 0
 3-21G
 ****
 26  27  29  30  31  37  38  41  42  43  44  45  46  47 0
 3-21G
 ****
 48 0
 3-21G
 ****


