%nproc=1
%NoSave
%Mem=1900MB
#P OB98/GEN NMR

erre ene a

0 1
  C     -106.190      39.760      -4.105
  O     -107.102      39.433      -3.075
  H     -105.187      39.457      -3.793
  H     -106.188      40.837      -4.289
  H     -106.445      39.227      -5.025
  P     -108.649      39.784      -3.294
  C     -109.784      41.848      -4.350
  O     -108.708      41.365      -3.558
  C     -109.525      43.294      -4.756
  O     -108.460      43.363      -5.723
  C     -110.732      43.985      -5.389
  O     -111.629      44.435      -4.386
  C     -110.043      45.120      -6.128
  O     -109.670      46.152      -5.196
  C     -108.787      44.416      -6.672
  N     -108.456      45.184     -11.671
  C     -108.269      46.065     -10.623
  N     -107.997      47.344     -10.961
  N     -108.361      45.728      -9.364
  C     -108.709      44.433      -9.182
  C     -108.936      43.470     -10.137
  C     -108.776      43.841     -11.527
  O     -108.916      43.087     -12.485
  N     -109.333      42.285      -9.573
  C     -109.308      42.521      -8.276
  N     -108.949      43.816      -7.987
  O     -109.593      39.315      -2.228
  O     -108.993      39.157      -4.723
  H     -110.484      46.646      -4.988
  H     -109.342      38.252      -4.636
  H     -108.390      45.509     -12.621
  H     -109.536      41.793      -7.507
  H     -107.924      45.088      -6.728
  H     -110.671      45.580      -6.890
  H     -108.197      47.707     -11.885
  H     -111.228      43.343      -6.123
  H     -107.907      48.015     -10.210
  H     -109.186      43.838      -3.865
  H     -110.696      41.776      -3.749
  H     -109.904      41.231      -5.246
  P     -113.135      44.855      -4.750
  C     -114.005      46.577      -6.470
  O     -113.000      46.255      -5.519
  O     -114.078      44.867      -3.596
  O     -113.559      43.857      -5.921
  H     -113.955      43.012      -5.596
  H     -113.792      47.532      -6.904
  H     -114.958      46.610      -5.984
  H     -114.022      45.832      -7.238

 6  7  8  9  10  11  12  13  14  15  26  29  33  34 0
 6-311+G(2d,p)
 ****
 36  38  39  40  41 0
 6-311+G(2d,p)
 ****
 1  2  3  4  5  16  17  18  19  20  21  22  23  24  25 0
 3-21G
 ****
 27  28  30  31  32  35  37  42  43  44  45  46  47 0
 3-21G
 ****
 48  49 0
 3-21G
 ****


