%nproc=1
%NoSave
%Mem=1900MB
#P OB98/GEN NMR

erre ene a

0 1
  C     -169.411    -128.587      61.389
  O     -170.663    -129.007      60.875
  P     -170.914    -130.530      60.465
  C     -170.994    -129.981      57.898
  O     -170.438    -130.730      58.955
  C     -170.651    -130.664      56.569
  O     -169.314    -130.313      56.159
  C     -170.724    -132.186      56.686
  O     -171.994    -132.659      56.272
  C     -169.587    -132.642      55.790
  O     -170.001    -132.641      54.412
  C     -168.534    -131.532      56.036
  N     -167.670    -131.646      57.226
  C     -166.863    -132.768      57.386
  O     -166.796    -133.681      56.570
  N     -166.139    -132.819      58.552
  C     -166.116    -131.856      59.518
  O     -165.665    -132.016      60.648
  C     -166.767    -130.589      59.166
  C     -167.521    -130.552      58.067
  O     -172.508    -130.620      60.365
  O     -170.354    -131.549      61.402
  H     -170.771    -133.232      54.344
  H     -172.883    -131.004      61.177
  H     -165.661    -133.695      58.738
  H     -166.658    -129.751      59.839
  H     -168.045    -129.637      57.805
  H     -167.873    -131.421      55.168
  H     -169.290    -133.664      56.020
  H     -170.505    -132.498      57.716
  H     -171.344    -130.309      55.797
  H     -170.599    -128.958      57.914
  H     -172.078    -129.909      58.019
  P     -172.403    -134.180      56.555
  C     -173.464    -134.888      54.331
  O     -172.298    -134.915      55.131
  O     -173.689    -134.377      57.286
  O     -171.154    -134.747      57.383
  H     -171.355    -134.726      58.341
  H     -173.212    -135.258      53.335
  H     -173.849    -133.869      54.244
  H     -174.228    -135.537      54.765
  H     -169.446    -127.539      61.601
  H     -168.646    -128.780      60.666
  H     -169.196    -129.126      62.288

 3  4  5  6  7  8  9  10  11  12  13  23  28  29  30  31  32 0
 6-311+G(2d,p)
 ****
 33  34 0
 6-311+G(2d,p)
 ****
 1  2  14  15  16  17  18  19  20  21  22  24  25  26  27 0
 3-21G
 ****
 35  36  37  38  39  40  41  42  43  44  45 0
 3-21G
 ****


