%nproc=1
%NoSave
%Mem=1900MB
#P OB98/GEN NMR

erre ene a

0 1
  C       89.187      -2.835    -140.941
  O       89.010      -2.650    -142.348
  P       90.322      -2.706    -143.272
  C       90.285      -0.131    -143.722
  O       90.221      -1.442    -144.257
  C       89.713       0.889    -144.712
  O       90.432       0.801    -145.979
  C       88.220       0.716    -145.009
  O       87.669       2.034    -145.151
  C       88.217      -0.003    -146.345
  O       86.992       0.170    -147.042
  C       89.438       0.639    -147.013
  N       89.949      -0.148    -148.132
  C       89.153      -0.220    -149.267
  O       88.030       0.276    -149.328
  N       89.672      -0.924    -150.319
  C       90.851      -1.614    -150.316
  O       91.270      -2.230    -151.288
  C       91.597      -1.595    -149.048
  C       91.117      -0.875    -148.031
  O       90.000      -3.964    -144.202
  O       91.585      -2.806    -142.483
  H       89.062      -4.035    -144.446
  H       86.253      -0.095    -146.457
  H       89.124      -0.963    -151.164
  H       92.506      -2.178    -148.988
  H       91.630      -0.858    -147.079
  H       89.187       1.642    -147.382
  H       88.381      -1.075    -146.192
  H       87.688       0.176    -144.220
  H       89.898       1.892    -144.307
  H       91.325       0.131    -143.506
  H       89.745      -0.105    -142.769
  P       86.942       2.696    -143.876
  C       84.420       2.425    -144.520
  O       85.537       3.273    -144.383
  O       87.832       4.020    -143.706
  O       86.923       1.850    -142.648
  H       87.978       4.492    -144.542
  H       83.524       3.040    -144.640
  H       84.291       1.795    -143.636
  H       84.537       1.796    -145.407
  H       88.238      -2.774    -140.451
  H       89.835      -2.073    -140.560
  H       89.621      -3.796    -140.759

 3  4  5  6  7  8  9  10  11  12  13  24  28  29  30  31  32 0
 6-311+G(2d,p)
 ****
 33  34 0
 6-311+G(2d,p)
 ****
 1  2  14  15  16  17  18  19  20  21  22  23  25  26  27 0
 3-21G
 ****
 35  36  37  38  39  40  41  42  43  44  45 0
 3-21G
 ****


