%nproc=1
%NoSave
%Mem=1900MB
#P OB98/GEN NMR

erre ene a

0 1
  C     -311.415    -236.833    -131.500
  O     -312.755    -237.136    -131.150
  P     -313.331    -238.581    -131.532
  C     -312.142    -239.676    -129.499
  O     -312.349    -239.685    -130.905
  C     -310.929    -240.526    -129.123
  O     -310.782    -240.555    -127.678
  C     -311.027    -241.981    -129.599
  O     -309.714    -242.461    -129.931
  C     -311.482    -242.727    -128.361
  O     -311.129    -244.110    -128.424
  C     -310.756    -241.937    -127.269
  N     -311.830    -245.221    -123.583
  C     -310.950    -245.346    -124.640
  N     -310.342    -246.545    -124.777
  N     -310.687    -244.382    -125.482
  C     -311.376    -243.243    -125.225
  C     -312.263    -242.996    -124.199
  C     -312.552    -244.074    -123.283
  O     -313.340    -244.037    -122.344
  N     -312.732    -241.709    -124.245
  C     -312.170    -241.188    -125.317
  N     -311.367    -242.092    -125.966
  O     -313.046    -238.673    -133.104
  O     -314.781    -238.772    -131.240
  H     -311.270    -244.478    -127.533
  H     -313.876    -238.556    -133.600
  H     -312.007    -245.998    -122.966
  H     -312.327    -240.182    -125.682
  H     -309.706    -242.237    -127.185
  H     -312.569    -242.653    -128.257
  H     -310.552    -247.347    -124.202
  H     -311.697    -242.135    -130.450
  H     -309.727    -246.676    -125.569
  H     -310.026    -240.049    -129.525
  H     -313.026    -240.081    -129.006
  H     -312.001    -238.645    -129.158
  P     -309.656    -243.871    -130.697
  C     -308.448    -242.907    -132.790
  O     -309.604    -243.518    -132.258
  O     -311.128    -244.464    -130.489
  O     -308.592    -244.794    -130.201
  H     -311.109    -245.439    -130.544
  H     -307.995    -243.580    -133.523
  H     -307.708    -242.674    -132.018
  H     -308.736    -241.979    -133.294
  H     -311.179    -235.839    -131.181
  H     -311.299    -236.904    -132.561
  H     -310.756    -237.527    -131.022

 3  4  5  6  7  8  9  10  11  12  23  26  30  31 0
 6-311+G(2d,p)
 ****
 33  35  36  37  38 0
 6-311+G(2d,p)
 ****
 1  2  13  14  15  16  17  18  19  20  21  22  24  25 0
 3-21G
 ****
 27  28  29  32  34  39  40  41  42  43  44  45  46  47  48  49 0
 3-21G
 ****


