%nproc=1
%NoSave
%Mem=1900MB
#P OB98/GEN NMR

erre ene a

0 1
  C     -259.504     -87.605     266.494
  O     -260.142     -88.853     266.692
  P     -260.229     -89.522     268.145
  C     -257.928     -90.486     267.516
  O     -258.708     -89.869     268.533
  C     -256.479     -90.025     267.620
  O     -256.444     -88.583     267.501
  C     -255.768     -90.338     268.936
  O     -255.215     -91.637     269.019
  C     -254.642     -89.313     268.906
  O     -253.591     -89.773     268.036
  C     -255.335     -88.088     268.290
  N     -254.013     -84.483     271.674
  C     -253.289     -85.200     270.785
  N     -253.710     -86.159     269.929
  C     -255.040     -86.316     270.023
  C     -255.910     -85.660     270.882
  C     -255.345     -84.699     271.735
  N     -256.092     -83.955     272.624
  N     -257.210     -86.110     270.698
  C     -257.115     -87.015     269.742
  N     -255.830     -87.168     269.300
  O     -261.199     -90.647     268.255
  O     -260.580     -88.303     269.117
  H     -252.899     -89.081     268.036
  H     -260.911     -88.643     269.976
  H     -252.223     -84.976     270.754
  H     -257.942     -87.574     269.355
  H     -254.675     -87.528     267.613
  H     -254.197     -89.137     269.887
  H     -256.420     -90.124     269.799
  H     -255.917     -90.448     266.769
  H     -258.331     -90.187     266.540
  H     -255.626     -83.198     273.105
  H     -257.098     -83.997     272.556
  H     -258.001     -91.575     267.598
  P     -255.792     -92.614     270.162
  C     -253.442     -92.735     271.299
  O     -254.817     -92.435     271.418
  O     -256.021     -94.024     269.716
  O     -257.134     -91.863     270.630
  H     -256.994     -91.017     271.081
  H     -252.925     -92.393     272.204
  H     -253.003     -92.221     270.441
  H     -253.295     -93.812     271.201
  H     -259.556     -87.338     265.459
  H     -258.479     -87.677     266.793
  H     -259.995     -86.856     267.080

 3  4  5  6  7  8  9  10  11  12  22  25  29  30  31  32 0
 6-311+G(2d,p)
 ****
 33  36  37 0
 6-311+G(2d,p)
 ****
 1  2  13  14  15  16  17  18  19  20  21  23  24  26 0
 3-21G
 ****
 27  28  34  35  38  39  40  41  42  43  44  45  46  47  48 0
 3-21G
 ****


