%nproc=1
%NoSave
%Mem=1900MB
#P OB98/GEN NMR

erre ene a

0 1
  C      163.323      24.282    -202.125
  O      163.393      25.693    -202.060
  H      163.301      23.954    -203.167
  H      164.208      23.861    -201.642
  H      162.432      23.923    -201.604
  P      162.200      26.509    -202.754
  C      159.653      26.027    -202.821
  O      160.838      26.044    -202.037
  C      158.443      26.356    -201.947
  O      158.329      25.338    -200.921
  C      158.508      27.728    -201.253
  O      157.375      28.523    -201.618
  C      158.412      27.406    -199.770
  O      157.590      28.324    -199.047
  C      157.833      25.996    -199.748
  N      157.296      25.829    -194.681
  C      156.521      26.374    -195.646
  N      156.663      26.291    -196.983
  C      157.725      25.534    -197.302
  C      158.595      24.894    -196.436
  C      158.358      25.079    -195.063
  N      159.181      24.574    -194.080
  N      159.575      24.214    -197.135
  C      159.326      24.472    -198.402
  N      158.229      25.282    -198.551
  O      162.101      25.848    -204.209
  O      162.401      27.985    -202.830
  H      157.996      29.204    -199.150
  H      162.063      26.550    -204.886
  H      155.675      26.961    -195.292
  H      159.926      24.142    -199.243
  H      156.736      25.998    -199.801
  H      159.417      27.430    -199.334
  H      159.433      28.273    -201.479
  H      157.543      26.288    -202.567
  H      159.514      25.031    -203.255
  H      159.006      24.854    -193.129
  H      160.038      24.108    -194.358
  H      159.751      26.754    -203.635
  P      157.529      29.436    -202.935
  C      157.360      29.054    -205.506
  O      157.194      28.510    -204.203
  O      159.113      29.647    -203.042
  O      156.795      30.731    -202.863
  H      159.309      30.481    -203.505
  H      157.098      28.317    -206.236
  H      158.380      29.345    -205.644
  H      156.727      29.909    -205.619

 6  7  8  9  10  11  12  13  14  15  25  28  32  33  34  35 0
 6-311+G(2d,p)
 ****
 36  39  40 0
 6-311+G(2d,p)
 ****
 1  2  3  4  5  16  17  18  19  20  21  22  23  24 0
 3-21G
 ****
 26  27  29  30  31  37  38  41  42  43  44  45  46  47  48 0
 3-21G
 ****


