%nproc=1
%NoSave
%Mem=1900MB
#P OB98/GEN NMR

erre ene a

0 1
  C     -606.203     780.509    -893.617
  O     -607.340     780.437    -894.467
  H     -606.528     780.411    -892.577
  H     -605.702     781.478    -893.737
  H     -605.506     779.701    -893.847
  P     -607.067     780.396    -896.037
  C     -606.623     777.805    -895.897
  O     -607.325     778.883    -896.527
  C     -607.609     776.825    -895.287
  O     -608.396     777.443    -894.237
  C     -608.655     776.301    -896.267
  O     -608.117     775.413    -897.217
  C     -609.647     775.666    -895.307
  O     -609.190     774.370    -894.877
  C     -609.633     776.671    -894.137
  N     -610.815     777.534    -894.127
  C     -612.053     776.867    -894.137
  O     -612.081     775.619    -894.147
  N     -613.188     777.612    -894.167
  C     -613.118     778.906    -894.147
  N     -614.311     779.598    -894.197
  C     -611.836     779.645    -894.107
  C     -610.736     778.908    -894.077
  O     -605.478     780.543    -896.137
  O     -607.823     781.388    -896.847
  H     -609.075     773.825    -895.677
  H     -604.998     779.891    -895.577
  H     -611.840     780.725    -894.077
  H     -609.764     779.356    -894.067
  H     -609.578     776.148    -893.167
  H     -610.621     775.504    -895.757
  H     -609.164     777.146    -896.747
  H     -607.049     775.991    -894.847
  H     -615.167     779.038    -894.247
  H     -605.921     778.182    -895.137
  H     -614.372     780.598    -894.217
  H     -606.022     777.314    -896.667
  P     -608.533     775.508    -898.767
  C     -606.196     776.395    -899.377
  O     -607.164     775.403    -899.637
  O     -609.380     776.693    -899.097
  O     -609.237     774.089    -899.047
  H     -608.655     773.321    -898.897
  H     -605.342     776.232    -900.000
  H     -605.902     776.346    -898.349
  H     -606.609     777.360    -899.584

 6  7  8  9  10  11  12  13  14  15  16  26  30  31  32  33  35 0
 6-311+G(2d,p)
 ****
 37  38 0
 6-311+G(2d,p)
 ****
 1  2  3  4  5  17  18  19  20  21  22  23  24  25 0
 3-21G
 ****
 27  28  29  34  36  39  40  41  42  43  44  45  46 0
 3-21G
 ****


