%nproc=1
%NoSave
%Mem=1900MB
#P OB98/GEN NMR

erre ene a

0 1
  C       47.988     113.286     405.092
  O       47.301     112.875     406.277
  P       48.061     113.148     407.663
  C       45.880     113.568     408.997
  O       47.048     112.777     408.852
  C       44.956     113.419     407.786
  O       44.509     112.036     407.648
  C       43.691     114.295     407.860
  O       43.392     114.705     406.521
  C       42.653     113.305     408.369
  O       41.319     113.750     408.184
  C       43.067     112.068     407.583
  N       40.274     107.968     406.389
  C       40.666     109.037     405.663
  N       41.409     110.094     406.057
  C       41.758     109.967     407.350
  C       41.433     108.939     408.217
  C       40.654     107.896     407.688
  N       40.231     106.812     408.427
  N       41.959     109.178     409.478
  C       42.524     110.368     409.376
  N       42.500     110.841     408.096
  O       48.165     114.742     407.727
  O       49.396     112.486     407.751
  H       41.126     113.833     407.229
  H       49.050     115.038     407.446
  H       40.335     109.048     404.627
  H       42.958     110.925     410.193
  H       42.784     112.137     406.525
  H       42.797     113.149     409.444
  H       43.807     115.179     408.489
  H       45.525     113.667     406.882
  H       46.152     114.623     409.108
  H       39.670     106.117     407.959
  H       40.480     106.727     409.402
  H       45.369     113.287     409.923
  P       43.218     116.269     406.209
  C       43.730     116.157     403.696
  O       42.728     116.324     404.683
  O       44.756     116.710     406.058
  O       42.451     117.061     407.211
  H       45.234     116.114     405.452
  H       43.254     116.135     402.715
  H       44.266     115.216     403.855
  H       44.431     116.997     403.731
  H       47.390     113.056     404.235
  H       48.923     112.769     405.024
  H       48.165     114.341     405.130

 3  4  5  6  7  8  9  10  11  12  22  25  29  30  31  32 0
 6-311+G(2d,p)
 ****
 33  36  37 0
 6-311+G(2d,p)
 ****
 1  2  13  14  15  16  17  18  19  20  21  23  24  26 0
 3-21G
 ****
 27  28  34  35  38  39  40  41  42  43  44  45  46  47  48 0
 3-21G
 ****


