%nproc=1
%NoSave
%Mem=1900MB
#P OB98/GEN NMR

erre ene a

0 1
  C      312.803    -362.449    -170.773
  O      313.896    -362.410    -171.689
  P      313.792    -361.456    -172.972
  C      312.820    -363.358    -174.414
  O      312.643    -362.029    -173.934
  C      311.623    -363.793    -175.260
  O      310.406    -363.820    -174.490
  C      311.341    -362.856    -176.425
  O      312.292    -363.031    -177.460
  C      309.912    -363.248    -176.780
  O      309.893    -364.418    -177.613
  C      309.309    -363.572    -175.396
  N      308.430    -362.529    -174.892
  C      307.106    -362.572    -175.342
  O      306.753    -363.435    -176.148
  N      306.224    -361.628    -174.880
  C      306.625    -360.718    -174.048
  N      305.708    -359.813    -173.618
  C      308.019    -360.629    -173.559
  C      308.857    -361.550    -174.023
  O      315.086    -361.134    -173.644
  O      313.113    -360.129    -172.371
  H      310.397    -364.184    -178.417
  H      313.419    -359.357    -172.885
  H      308.305    -359.855    -172.862
  H      309.900    -361.559    -173.722
  H      308.733    -364.504    -175.442
  H      309.400    -362.448    -177.330
  H      311.361    -361.818    -176.076
  H      311.825    -364.805    -175.639
  H      304.767    -359.886    -173.977
  H      312.944    -364.037    -173.566
  H      305.915    -359.097    -172.936
  H      313.750    -363.402    -174.993
  P      313.364    -361.863    -177.688
  C      313.398    -362.007    -180.278
  O      313.100    -361.232    -179.131
  O      314.738    -362.671    -177.886
  O      313.473    -360.881    -176.566
  H      315.475    -362.156    -177.513
  H      312.882    -361.575    -181.137
  H      313.071    -363.040    -180.152
  H      314.473    -361.982    -180.466
  H      313.028    -363.129    -169.978
  H      311.921    -362.777    -171.283
  H      312.640    -361.471    -170.371

 3  4  5  6  7  8  9  10  11  12  13  23  27  28  29  30  32 0
 6-311+G(2d,p)
 ****
 34  35 0
 6-311+G(2d,p)
 ****
 1  2  14  15  16  17  18  19  20  21  22  24  25  26 0
 3-21G
 ****
 31  33  36  37  38  39  40  41  42  43  44  45  46 0
 3-21G
 ****


