%nproc=1
%NoSave
%Mem=1900MB
#P OB98/GEN NMR

erre ene a

0 1
  C      242.213    -235.132     464.535
  O      242.812    -235.994     463.555
  P      244.298    -236.561     463.816
  C      246.750    -236.031     463.085
  O      245.382    -235.641     463.063
  C      247.671    -234.808     463.242
  O      247.598    -233.961     462.049
  C      247.342    -233.914     464.446
  O      248.578    -233.365     464.915
  C      246.493    -232.818     463.816
  O      246.421    -231.645     464.607
  C      247.217    -232.640     462.485
  N      246.432    -231.956     461.452
  C      246.925    -230.755     460.945
  O      247.950    -230.204     461.338
  N      246.162    -230.183     459.958
  C      244.980    -230.648     459.466
  O      244.333    -230.071     458.609
  C      244.494    -231.904     460.073
  C      245.233    -232.488     461.016
  O      244.310    -237.901     462.933
  O      244.622    -236.884     465.242
  H      247.320    -231.266     464.649
  H      244.694    -238.626     463.447
  H      246.515    -229.324     459.558
  H      243.553    -232.309     459.715
  H      244.898    -233.421     461.468
  H      248.152    -232.084     462.652
  H      245.467    -233.193     463.682
  H      246.831    -234.450     465.251
  H      248.703    -235.171     463.306
  H      246.993    -236.543     462.147
  H      246.909    -236.733     463.911
  P      249.281    -234.049     466.197
  C      249.315    -233.530     468.759
  O      248.796    -233.232     467.491
  O      250.789    -233.547     465.994
  O      249.144    -235.527     466.254
  H      250.853    -232.606     465.770
  H      250.389    -233.721     468.725
  H      248.799    -234.407     469.172
  H      249.142    -232.675     469.427
  H      241.234    -234.848     464.210
  H      242.816    -234.257     464.656
  H      242.142    -235.649     465.469

 3  4  5  6  7  8  9  10  11  12  13  23  28  29  30  31  32 0
 6-311+G(2d,p)
 ****
 33  34 0
 6-311+G(2d,p)
 ****
 1  2  14  15  16  17  18  19  20  21  22  24  25  26 0
 3-21G
 ****
 27  35  36  37  38  39  40  41  42  43  44  45 0
 3-21G
 ****


