%nproc=1
%NoSave
%Mem=1900MB
#P OB98/GEN NMR

erre ene a

0 1
  C      -63.401     -81.129      19.446
  O      -62.370     -81.690      18.632
  P      -61.722     -83.063      19.152
  C      -61.262     -84.088      16.813
  O      -60.711     -83.593      18.024
  C      -60.283     -83.892      15.654
  O      -60.300     -82.547      15.142
  C      -58.835     -84.176      16.032
  O      -58.599     -85.574      16.035
  C      -58.079     -83.443      14.932
  O      -57.968     -84.252      13.743
  C      -58.970     -82.219      14.666
  N      -56.348     -77.936      13.981
  C      -56.471     -79.040      13.159
  N      -55.823     -78.984      11.977
  N      -57.168     -80.101      13.469
  C      -57.763     -80.018      14.682
  C      -57.738     -78.969      15.572
  C      -56.961     -77.801      15.218
  O      -56.839     -76.791      15.901
  N      -58.515     -79.226      16.673
  C      -58.902     -80.478      16.504
  N      -58.527     -80.981      15.283
  O      -62.945     -84.093      19.090
  O      -61.152     -82.968      20.528
  H      -57.624     -83.703      13.015
  H      -63.226     -84.328      19.995
  H      -55.791     -77.149      13.695
  H      -59.474     -81.051      17.217
  H      -59.055     -82.011      13.593
  H      -57.056     -83.200      15.234
  H      -55.271     -78.197      11.672
  H      -58.605     -83.731      17.007
  H      -55.907     -79.780      11.356
  H      -60.593     -84.566      14.844
  H      -62.201     -83.579      16.593
  H      -61.503     -85.149      16.945
  P      -57.646     -86.170      17.177
  C      -58.552     -88.594      17.365
  O      -57.514     -87.743      16.919
  O      -58.552     -86.068      18.494
  O      -56.357     -85.438      17.352
  H      -58.015     -85.726      19.234
  H      -58.599     -89.465      16.706
  H      -59.521     -88.089      17.356
  H      -58.329     -88.929      18.381
  H      -63.753     -80.222      19.001
  H      -63.012     -80.920      20.421
  H      -64.210     -81.824      19.526

 3  4  5  6  7  8  9  10  11  12  23  26  30  31 0
 6-311+G(2d,p)
 ****
 33  35  36  37  38 0
 6-311+G(2d,p)
 ****
 1  2  13  14  15  16  17  18  19  20  21  22  24  25 0
 3-21G
 ****
 27  28  29  32  34  39  40  41  42  43  44  45  46  47  48  49 0
 3-21G
 ****


