%nproc=1
%NoSave
%Mem=1900MB
#P OB98/GEN NMR

erre ene a

0 1
  C     -145.235    -571.086      68.616
  O     -145.411    -571.486      67.255
  P     -145.261    -570.365      66.123
  C     -147.244    -568.733      66.547
  O     -145.862    -568.975      66.687
  C     -147.541    -567.291      66.104
  O     -147.038    -567.061      64.756
  C     -149.030    -566.931      66.077
  O     -149.164    -565.541      66.349
  C     -149.398    -567.186      64.626
  O     -150.619    -566.525      64.267
  C     -148.140    -566.667      63.925
  N     -149.071    -565.809      59.036
  C     -149.396    -565.064      60.151
  N     -150.052    -563.897      59.936
  N     -149.124    -565.424      61.382
  C     -148.443    -566.605      61.436
  C     -148.067    -567.433      60.423
  C     -148.403    -567.039      59.074
  O     -148.161    -567.660      58.055
  N     -147.422    -568.558      60.880
  C     -147.396    -568.384      62.193
  N     -147.982    -567.225      62.580
  O     -146.355    -570.819      65.019
  O     -143.901    -570.283      65.516
  H     -150.806    -566.760      63.333
  H     -145.914    -571.173      64.240
  H     -149.332    -565.491      58.124
  H     -146.992    -569.098      62.912
  H     -148.130    -565.580      63.842
  H     -149.537    -568.262      64.453
  H     -150.253    -563.528      59.006
  H     -149.653    -567.498      66.774
  H     -150.270    -563.316      60.740
  H     -146.991    -566.607      66.772
  H     -147.767    -568.921      67.516
  H     -147.674    -569.462      65.850
  P     -149.188    -565.107      67.887
  C     -151.735    -564.593      67.966
  O     -150.659    -565.411      68.426
  O     -149.145    -563.481      67.814
  O     -148.069    -565.648      68.702
  H     -148.761    -563.120      68.635
  H     -152.317    -565.152      67.214
  H     -151.376    -563.658      67.546
  H     -152.391    -564.383      68.832
  H     -145.363    -571.934      69.256
  H     -145.959    -570.338      68.864
  H     -144.251    -570.687      68.746

 3  4  5  6  7  8  9  10  11  12  23  26  30  31 0
 6-311+G(2d,p)
 ****
 33  35  36  37  38 0
 6-311+G(2d,p)
 ****
 1  2  13  14  15  16  17  18  19  20  21  22  24  25 0
 3-21G
 ****
 27  28  29  32  34  39  40  41  42  43  44  45  46  47  48  49 0
 3-21G
 ****


