%nproc=1
%NoSave
%Mem=1900MB
#P OB98/GEN NMR

erre ene a

0 1
  C      574.729     -15.354    -150.208
  O      574.793     -15.435    -151.620
  P      573.408     -15.551    -152.425
  C      574.715     -16.861    -154.256
  O      573.570     -16.807    -153.420
  C      574.951     -18.292    -154.735
  O      575.367     -19.135    -153.642
  C      573.713     -18.969    -155.309
  O      573.469     -18.592    -156.661
  C      574.114     -20.433    -155.231
  O      574.975     -20.770    -156.337
  C      574.896     -20.481    -153.908
  N      573.026     -24.558    -151.563
  C      573.983     -24.470    -152.561
  N      574.457     -25.639    -153.040
  N      574.425     -23.341    -153.044
  C      573.854     -22.254    -152.474
  C      572.902     -22.213    -151.474
  C      572.410     -23.469    -150.959
  O      571.532     -23.616    -150.119
  N      572.569     -20.927    -151.154
  C      573.316     -20.179    -151.947
  N      574.079     -20.943    -152.801
  O      573.442     -14.297    -153.413
  O      572.186     -15.565    -151.566
  H      574.426     -20.731    -157.141
  H      572.548     -14.113    -153.751
  H      572.715     -25.452    -151.230
  H      573.326     -19.099    -151.958
  H      575.770     -21.132    -153.978
  H      573.256     -21.113    -155.275
  H      574.112     -26.545    -152.753
  H      572.832     -18.796    -154.680
  H      575.110     -25.609    -153.819
  H      575.758     -18.280    -155.479
  H      575.584     -16.516    -153.697
  H      574.566     -16.193    -155.117
  P      571.996     -18.874    -157.228
  C      573.066     -18.571    -159.582
  O      572.209     -19.334    -158.752
  O      571.371     -17.406    -157.355
  O      571.160     -19.773    -156.381
  H      570.399     -17.436    -157.287
  H      573.300     -19.157    -160.475
  H      573.996     -18.328    -159.065
  H      572.560     -17.646    -159.886
  H      575.719     -15.282    -149.810
  H      574.252     -16.231    -149.822
  H      574.167     -14.489    -149.926

 3  4  5  6  7  8  9  10  11  12  23  26  30  31 0
 6-311+G(2d,p)
 ****
 33  35  36  37  38 0
 6-311+G(2d,p)
 ****
 1  2  13  14  15  16  17  18  19  20  21  22  24  25 0
 3-21G
 ****
 27  28  29  32  34  39  40  41  42  43  44  45  46  47  48  49 0
 3-21G
 ****


