%nproc=1
%NoSave
%Mem=1900MB
#P OB98/GEN NMR

erre ene a

0 1
  C     -616.621    -890.550     -29.346
  O     -617.165    -891.780     -29.753
  H     -617.360    -889.770     -29.510
  H     -615.728    -890.330     -29.928
  H     -616.370    -890.570     -28.276
  P     -616.415    -893.140     -29.359
  C     -615.389    -893.070     -31.719
  O     -615.144    -893.260     -30.341
  C     -614.131    -893.380     -32.540
  O     -613.994    -894.830     -32.636
  C     -614.164    -892.830     -33.983
  O     -612.820    -892.540     -34.353
  C     -614.689    -894.030     -34.755
  O     -614.432    -893.890     -36.142
  C     -613.977    -895.170     -34.039
  N     -614.586    -896.480     -34.310
  C     -614.033    -897.230     -35.342
  O     -613.099    -896.820     -36.038
  N     -614.628    -898.420     -35.601
  C     -615.720    -898.930     -34.946
  O     -616.230    -900.000     -35.243
  C     -616.297    -898.070     -33.898
  C     -615.691    -896.910     -33.614
  O     -617.274    -894.360     -29.297
  O     -615.736    -892.820     -27.939
  H     -615.001    -893.190     -36.527
  H     -615.674    -893.630     -27.402
  H     -614.238    -898.990     -36.338
  H     -617.170    -898.430     -33.378
  H     -616.089    -896.260     -32.846
  H     -612.919    -895.230     -34.355
  H     -615.779    -894.120     -34.638
  H     -614.791    -891.940     -34.085
  H     -613.251    -893.020     -31.999
  H     -615.669    -892.020     -31.875
  H     -616.216    -893.710     -32.045
  P     -612.149    -891.100     -34.123
  C     -613.174    -889.990     -36.217
  O     -613.095    -889.980     -34.794
  O     -610.715    -891.010     -34.526
  O     -612.315    -890.830     -32.547
  H     -611.596    -890.240     -32.241
  H     -613.826    -889.207     -36.544
  H     -613.556    -890.934     -36.546
  H     -612.199    -889.837     -36.629

 6  7  8  9  10  11  12  13  14  15  16  26  31  32  33  34  35 0
 6-311+G(2d,p)
 ****
 36  37 0
 6-311+G(2d,p)
 ****
 1  2  3  4  5  17  18  19  20  21  22  23  24  25 0
 3-21G
 ****
 27  28  29  30  38  39  40  41  42  43  44  45 0
 3-21G
 ****


