%nproc=1
%NoSave
%Mem=1900MB
#P OB98/GEN NMR

erre ene a

0 1
  C     -428.516    -528.835     -80.798
  O     -427.185    -528.746     -80.332
  H     -429.189    -528.510     -80.000
  H     -428.759    -529.868     -81.067
  H     -428.654    -528.182     -81.664
  P     -426.036    -529.234     -81.341
  C     -424.760    -527.001     -81.175
  O     -424.738    -528.399     -80.901
  C     -425.325    -526.234     -79.979
  O     -424.460    -526.456     -78.833
  C     -425.410    -524.719     -80.207
  O     -426.577    -524.213     -79.554
  C     -424.173    -524.197     -79.499
  O     -424.302    -522.824     -79.129
  C     -424.068    -525.171     -78.323
  N     -421.049    -523.368     -74.646
  C     -422.382    -523.290     -74.838
  N     -423.113    -523.825     -75.843
  C     -422.329    -524.542     -76.667
  C     -420.959    -524.716     -76.597
  C     -420.305    -524.074     -75.528
  N     -418.943    -524.117     -75.337
  N     -420.514    -525.482     -77.653
  C     -421.601    -525.781     -78.343
  N     -422.718    -525.216     -77.794
  O     -426.379    -529.159     -82.791
  O     -425.709    -530.700     -80.786
  H     -424.467    -522.298     -79.940
  H     -425.611    -530.700     -79.816
  H     -422.935    -522.717     -74.100
  H     -421.630    -526.381     -79.250
  H     -424.736    -524.905     -77.494
  H     -423.299    -524.285     -80.153
  H     -425.427    -524.444     -81.258
  H     -426.306    -526.654     -79.724
  H     -425.366    -526.800     -82.063
  H     -418.559    -523.632     -74.543
  H     -418.372    -524.644     -75.980
  H     -423.730    -526.683     -81.379
  P     -427.940    -524.094     -80.385
  C     -429.662    -525.102     -78.750
  O     -429.159    -523.914     -79.350
  O     -428.154    -525.134     -81.434
  O     -427.829    -522.633     -81.038
  H     -428.150    -522.674     -81.968
  H     -430.464    -524.854     -78.087
  H     -428.880    -525.583     -78.200
  H     -430.020    -525.762     -79.512

 6  7  8  9  10  11  12  13  14  15  25  28  32  33  34  35 0
 6-311+G(2d,p)
 ****
 36  39  40 0
 6-311+G(2d,p)
 ****
 1  2  3  4  5  16  17  18  19  20  21  22  23  24 0
 3-21G
 ****
 26  27  29  30  31  37  38  41  42  43  44  45  46  47 0
 3-21G
 ****
 48 0
 3-21G
 ****


