%nproc=1
%NoSave
%Mem=1900MB
#P OB98/GEN NMR

erre ene a

0 1
  C     -125.281     153.360     146.456
  O     -126.347     153.060     145.552
  P     -127.569     152.148     146.059
  C     -129.073     153.412     147.717
  O     -128.834     153.092     146.353
  C     -130.237     154.395     147.893
  O     -129.918     155.689     147.309
  C     -131.560     153.930     147.267
  O     -132.617     154.387     148.121
  C     -131.574     154.680     145.946
  O     -132.870     154.742     145.368
  C     -130.973     156.020     146.384
  N     -130.481     156.806     145.263
  C     -131.374     157.693     144.662
  O     -132.555     157.712     145.014
  N     -130.916     158.510     143.655
  C     -129.715     158.343     143.194
  N     -129.288     159.184     142.211
  C     -128.801     157.291     143.683
  C     -129.237     156.584     144.724
  O     -127.235     151.184     147.153
  O     -128.009     151.371     144.725
  H     -133.182     153.831     145.182
  H     -128.309     150.472     144.970
  H     -127.842     157.136     143.214
  H     -128.642     155.795     145.159
  H     -131.714     156.619     146.933
  H     -130.911     154.178     145.230
  H     -131.629     152.841     147.157
  H     -130.385     154.557     148.972
  H     -129.933     159.886     141.869
  H     -128.163     153.853     148.146
  H     -128.347     159.152     141.836
  H     -129.253     152.486     148.278
  P     -133.177     153.399     149.256
  C     -132.004     154.316     151.390
  O     -133.199     154.207     150.643
  O     -131.931     152.407     149.470
  O     -134.403     152.617     148.905
  H     -132.263     151.554     149.822
  H     -132.129     155.113     152.131
  H     -131.155     154.571     150.750
  H     -131.804     153.374     151.913
  H     -124.556     153.972     145.962
  H     -124.819     152.450     146.778
  H     -125.670     153.882     147.305

 3  4  5  6  7  8  9  10  11  12  13  23  27  28  29  30  32 0
 6-311+G(2d,p)
 ****
 34  35 0
 6-311+G(2d,p)
 ****
 1  2  14  15  16  17  18  19  20  21  22  24  25  26 0
 3-21G
 ****
 31  33  36  37  38  39  40  41  42  43  44  45  46 0
 3-21G
 ****


