%nproc=1
%NoSave
%Mem=1900MB
#P OB98/GEN NMR

erre ene a

0 1
  C     -409.409     242.610     -29.737
  O     -408.094     242.512     -30.239
  H     -409.425     243.368     -28.950
  H     -409.714     241.652     -29.305
  H     -410.110     242.903     -30.519
  P     -407.847     241.717     -31.605
  C     -405.988     240.105     -30.823
  O     -406.315     241.243     -31.607
  C     -404.476     239.843     -30.846
  O     -403.809     240.873     -30.075
  C     -404.129     238.500     -30.198
  O     -402.932     237.938     -30.730
  C     -403.890     238.882     -28.745
  O     -403.072     237.944     -28.045
  C     -403.256     240.262     -28.897
  N     -402.288     241.111     -23.961
  C     -402.029     239.986     -24.722
  N     -401.428     238.954     -24.080
  N     -402.346     239.877     -25.985
  C     -403.003     240.956     -26.472
  C     -403.337     242.116     -25.816
  C     -402.949     242.243     -24.426
  O     -403.173     243.207     -23.701
  N     -404.011     242.986     -26.639
  C     -404.089     242.349     -27.791
  N     -403.467     241.122     -27.751
  O     -407.854     242.870     -32.717
  O     -408.844     240.645     -31.920
  H     -403.621     237.162     -27.861
  H     -408.059     242.497     -33.594
  H     -401.997     241.156     -23.003
  H     -404.562     242.735     -28.685
  H     -402.169     240.173     -29.043
  H     -404.857     238.912     -28.237
  H     -401.349     238.928     -23.075
  H     -404.933     237.770     -30.285
  H     -401.520     238.036     -24.524
  H     -404.097     239.922     -31.873
  H     -406.531     239.257     -31.246
  H     -406.341     240.238     -29.797
  P     -403.002     236.484     -31.399
  C     -400.654     235.314     -31.026
  O     -401.542     236.026     -31.863
  O     -403.775     236.736     -32.775
  O     -403.678     235.447     -30.558
  H     -404.633     236.269     -32.771
  H     -399.744     235.121     -31.554
  H     -401.102     234.386     -30.737
  H     -400.443     235.895     -30.153

 6  7  8  9  10  11  12  13  14  15  26  29  33  34 0
 6-311+G(2d,p)
 ****
 36  38  39  40  41 0
 6-311+G(2d,p)
 ****
 1  2  3  4  5  16  17  18  19  20  21  22  23  24  25 0
 3-21G
 ****
 27  28  30  31  32  35  37  42  43  44  45  46  47 0
 3-21G
 ****
 48  49 0
 3-21G
 ****


