%nproc=1
%NoSave
%Mem=1900MB
#P OB98/GEN NMR

erre ene a

0 1
  C     -109.231      13.839     837.556
  O     -109.037      13.211     836.306
  H     -110.276      14.145     837.639
  H     -108.596      14.727     837.636
  H     -109.004      13.142     838.370
  P     -107.549      12.704     835.981
  C     -107.630      14.287     833.927
  O     -106.887      13.836     835.050
  C     -106.793      14.159     832.650
  O     -105.570      14.911     832.766
  C     -106.394      12.728     832.304
  O     -107.438      12.050     831.619
  C     -105.169      12.965     831.422
  O     -105.558      13.302     830.076
  C     -104.511      14.161     832.119
  N      -99.557      13.444     832.821
  C     -100.247      13.887     831.704
  N      -99.508      14.109     830.594
  N     -101.538      14.068     831.675
  C     -102.147      13.767     832.848
  C     -101.572      13.335     834.023
  C     -100.139      13.162     834.056
  O      -99.462      12.842     835.024
  N     -102.524      13.144     834.999
  C     -103.667      13.428     834.402
  N     -103.494      13.791     833.089
  O     -107.780      11.485     834.966
  O     -106.740      12.292     837.164
  H     -105.974      12.528     829.659
  H     -107.061      10.832     835.080
  H      -98.560      13.339     832.781
  H     -104.645      13.381     834.873
  H     -104.027      14.839     831.400
  H     -104.541      12.077     831.358
  H      -98.602      13.686     830.461
  H     -106.089      12.179     833.214
  H     -100.009      14.414     829.769
  H     -107.380      14.602     831.829
  H     -107.898      15.337     834.073
  H     -108.544      13.689     833.838
  P     -107.888      10.617     832.174
  C     -105.935       9.635     830.767
  O     -106.614       9.652     832.009
  O     -108.902      10.082     831.061
  O     -108.506      10.639     833.536
  H     -109.441       9.351     831.419
  H     -105.117       8.948     830.817
  H     -105.565      10.615     830.549
  H     -106.610       9.329     829.995

 6  7  8  9  10  11  12  13  14  15  26  29  33  34 0
 6-311+G(2d,p)
 ****
 36  38  39  40  41 0
 6-311+G(2d,p)
 ****
 1  2  3  4  5  16  17  18  19  20  21  22  23  24  25 0
 3-21G
 ****
 27  28  30  31  32  35  37  42  43  44  45  46  47 0
 3-21G
 ****
 48  49 0
 3-21G
 ****


