%nproc=1
%NoSave
%Mem=1900MB
#P OB98/GEN NMR

erre ene a

0 1
  C     -369.031    -892.027    -105.898
  O     -367.797    -892.310    -106.548
  P     -367.745    -892.627    -108.101
  C     -365.434    -891.800    -108.853
  O     -366.212    -892.935    -108.502
  C     -363.974    -892.198    -109.159
  O     -363.295    -892.480    -107.910
  C     -363.855    -893.428    -110.061
  O     -362.736    -893.192    -110.939
  C     -363.520    -894.531    -109.082
  O     -362.881    -895.657    -109.703
  C     -362.689    -893.797    -108.049
  N     -362.608    -894.481    -106.772
  C     -361.580    -895.422    -106.620
  O     -360.864    -895.725    -107.576
  N     -361.404    -895.998    -105.385
  C     -362.265    -895.800    -104.454
  N     -362.005    -896.325    -103.215
  C     -363.499    -894.998    -104.653
  C     -363.596    -894.353    -105.809
  O     -368.422    -891.631    -108.984
  O     -368.446    -894.079    -108.243
  H     -369.164    -894.023    -108.913
  H     -362.512    -896.230    -109.004
  H     -364.270    -894.975    -103.898
  H     -364.443    -893.726    -106.055
  H     -361.669    -893.631    -108.424
  H     -364.453    -894.905    -108.615
  H     -364.741    -893.622    -110.653
  H     -363.479    -891.344    -109.630
  H     -361.134    -896.821    -103.109
  H     -365.450    -891.106    -108.006
  H     -362.461    -895.974    -102.375
  H     -365.879    -891.279    -109.704
  P     -363.013    -893.115    -112.520
  C     -360.705    -892.047    -113.088
  O     -361.597    -893.141    -113.276
  O     -363.459    -891.569    -112.693
  O     -364.099    -893.994    -113.063
  H     -364.019    -891.486    -113.495
  H     -359.842    -892.227    -113.724
  H     -360.384    -892.019    -112.046
  H     -361.182    -891.128    -113.356
  H     -368.853    -891.841    -104.859
  H     -369.689    -892.864    -106.003
  H     -369.479    -891.163    -106.343

 3  4  5  6  7  8  9  10  11  12  13  24  27  28  29  30  32 0
 6-311+G(2d,p)
 ****
 34  35 0
 6-311+G(2d,p)
 ****
 1  2  14  15  16  17  18  19  20  21  22  23  25  26 0
 3-21G
 ****
 31  33  36  37  38  39  40  41  42  43  44  45  46 0
 3-21G
 ****


