%nproc=1
%NoSave
%Mem=1900MB
#P OB98/GEN NMR

erre ene a

0 1
  C     -174.779    -250.144     194.733
  O     -175.175    -248.901     194.196
  H     -173.953    -249.978     195.431
  H     -174.427    -250.801     193.933
  H     -175.604    -250.623     195.273
  P     -176.542    -248.814     193.361
  C     -178.327    -247.686     194.850
  O     -177.302    -247.498     193.884
  C     -178.638    -246.359     195.550
  O     -177.379    -245.778     196.007
  C     -179.332    -245.328     194.634
  O     -180.239    -244.551     195.425
  C     -178.157    -244.475     194.200
  O     -178.567    -243.217     193.726
  C     -177.333    -244.433     195.485
  N     -175.967    -243.981     195.232
  C     -175.525    -242.873     195.945
  O     -176.223    -242.261     196.759
  N     -174.266    -242.422     195.648
  C     -173.468    -242.899     194.645
  O     -172.381    -242.413     194.368
  C     -174.007    -244.039     193.883
  C     -175.208    -244.526     194.207
  O     -177.380    -250.051     193.345
  O     -176.081    -248.375     191.888
  H     -179.257    -243.330     193.042
  H     -176.767    -248.608     191.235
  H     -173.928    -241.626     196.164
  H     -173.406    -244.431     193.070
  H     -175.643    -245.353     193.659
  H     -177.798    -243.772     196.228
  H     -177.608    -244.975     193.392
  H     -179.865    -245.788     193.798
  H     -179.239    -246.560     196.446
  H     -177.976    -248.425     195.586
  H     -179.225    -248.072     194.357
  P     -181.818    -244.839     195.440
  C     -182.834    -246.440     197.178
  O     -182.330    -245.126     196.942
  O     -182.262    -245.862     194.441
  O     -182.482    -243.421     195.090
  H     -183.182    -243.546     194.421
  H     -183.145    -246.525     198.198
  H     -182.066    -247.158     196.978
  H     -183.669    -246.623     196.534

 6  7  8  9  10  11  12  13  14  15  16  26  31  32  33  34  35 0
 6-311+G(2d,p)
 ****
 36  37 0
 6-311+G(2d,p)
 ****
 1  2  3  4  5  17  18  19  20  21  22  23  24  25 0
 3-21G
 ****
 27  28  29  30  38  39  40  41  42  43  44  45 0
 3-21G
 ****


