%nproc=1
%NoSave
%Mem=1900MB
#P OB98/GEN NMR

erre ene a

0 1
  C       -6.581    -286.908    -130.844
  O       -6.875    -287.403    -132.141
  P       -5.955    -288.583    -132.720
  C       -7.483    -290.343    -131.553
  O       -6.170    -289.852    -131.760
  C       -7.524    -291.865    -131.727
  O       -6.544    -292.454    -130.828
  C       -8.876    -292.518    -131.407
  O       -9.003    -293.654    -132.269
  C       -8.703    -292.980    -129.971
  O       -9.615    -294.016    -129.614
  C       -7.237    -293.398    -129.982
  N       -6.485    -296.092    -125.764
  C       -7.222    -296.406    -126.895
  N       -7.785    -297.633    -126.927
  N       -7.389    -295.590    -127.904
  C       -6.749    -294.401    -127.737
  C       -6.031    -293.963    -126.653
  C       -5.823    -294.889    -125.560
  O       -5.108    -294.687    -124.583
  N       -5.616    -292.667    -126.817
  C       -6.012    -292.351    -128.030
  N       -6.670    -293.386    -128.649
  O       -4.475    -288.089    -132.373
  O       -6.130    -288.886    -134.178
  H      -10.471    -293.593    -129.394
  H       -4.077    -287.608    -133.121
  H       -6.378    -296.772    -125.027
  H       -5.858    -291.403    -128.517
  H       -7.087    -294.405    -130.399
  H       -8.868    -292.135    -129.290
  H       -7.672    -298.323    -126.196
  H       -9.724    -291.844    -131.538
  H       -8.297    -297.898    -127.755
  H       -7.215    -292.106    -132.748
  H       -8.151    -289.895    -132.300
  H       -7.833    -290.058    -130.557
  P      -10.477    -294.063    -132.758
  C      -10.178    -292.980    -135.095
  O      -10.916    -293.016    -133.889
  O      -11.391    -293.655    -131.503
  O      -10.646    -295.510    -133.093
  H      -12.150    -294.264    -131.441
  H      -10.804    -292.545    -135.881
  H       -9.865    -293.978    -135.406
  H       -9.295    -292.349    -134.960
  H       -7.272    -286.130    -130.594
  H       -5.585    -286.518    -130.828
  H       -6.665    -287.702    -130.132

 3  4  5  6  7  8  9  10  11  12  23  26  30  31 0
 6-311+G(2d,p)
 ****
 33  35  36  37  38 0
 6-311+G(2d,p)
 ****
 1  2  13  14  15  16  17  18  19  20  21  22  24  25 0
 3-21G
 ****
 27  28  29  32  34  39  40  41  42  43  44  45  46  47  48  49 0
 3-21G
 ****


