%nproc=1
%NoSave
%Mem=1900MB
#P OB98/GEN NMR

erre ene a

0 1
  C     -440.669    -462.802     128.049
  O     -440.531    -462.502     126.676
  H     -439.674    -462.803     128.508
  H     -441.119    -463.791     128.178
  H     -441.287    -462.044     128.538
  P     -441.880    -462.488     125.804
  C     -440.878    -463.134     123.522
  O     -441.397    -462.086     124.326
  C     -440.102    -462.565     122.332
  O     -440.961    -461.658     121.604
  C     -438.848    -461.784     122.744
  O     -437.804    -462.033     121.803
  C     -439.282    -460.332     122.641
  O     -438.192    -459.447     122.418
  C     -440.295    -460.393     121.491
  N     -441.094    -455.498     120.281
  C     -440.102    -456.356     119.967
  N     -439.974    -457.648     120.320
  C     -441.039    -458.059     121.044
  C     -442.126    -457.298     121.444
  C     -442.121    -455.954     121.038
  N     -443.117    -455.065     121.379
  N     -442.984    -458.059     122.210
  C     -442.439    -459.260     122.256
  N     -441.256    -459.303     121.573
  O     -442.999    -461.672     126.358
  O     -442.188    -464.051     125.650
  H     -437.547    -459.563     123.148
  H     -441.377    -464.555     125.441
  H     -439.297    -455.942     119.352
  H     -442.855    -460.123     122.770
  H     -439.812    -460.333     120.508
  H     -439.779    -460.030     123.573
  H     -438.508    -462.039     123.747
  H     -439.844    -463.389     121.653
  H     -441.697    -463.768     123.151
  H     -443.051    -454.118     121.040
  H     -443.906    -455.388     121.935
  H     -440.219    -463.750     124.146
  P     -436.322    -462.249     122.357
  C     -435.587    -461.237     120.083
  O     -435.292    -462.182     121.115
  O     -436.118    -463.396     123.287
  O     -436.023    -460.850     123.104
  H     -435.498    -461.032     123.905
  H     -434.835    -461.291     119.324
  H     -435.605    -460.251     120.497
  H     -436.542    -461.462     119.655

 6  7  8  9  10  11  12  13  14  15  25  28  32  33  34  35 0
 6-311+G(2d,p)
 ****
 36  39  40 0
 6-311+G(2d,p)
 ****
 1  2  3  4  5  16  17  18  19  20  21  22  23  24 0
 3-21G
 ****
 26  27  29  30  31  37  38  41  42  43  44  45  46  47 0
 3-21G
 ****
 48 0
 3-21G
 ****


