%nproc=1
%NoSave
%Mem=1900MB
#P OB98/GEN NMR

erre ene a

0 1
  C       86.763    -220.747     390.769
  O       87.288    -219.558     390.209
  P       87.597    -219.455     388.642
  C       90.054    -219.880     389.226
  O       89.153    -219.078     388.477
  C       91.491    -219.365     389.093
  O       92.377    -220.231     389.864
  C       92.030    -219.320     387.661
  O       92.910    -218.189     387.581
  C       92.844    -220.603     387.561
  O       93.802    -220.568     386.512
  C       93.427    -220.662     388.968
  N       96.905    -224.305     388.094
  C       96.708    -223.103     387.521
  N       95.740    -222.202     387.792
  C       94.928    -222.649     388.772
  C       94.989    -223.868     389.432
  C       96.052    -224.721     389.068
  N       96.288    -225.939     389.665
  N       93.946    -223.976     390.329
  C       93.272    -222.851     390.211
  N       93.869    -221.993     389.330
  O       86.660    -218.591     387.862
  O       87.538    -220.974     388.137
  H       94.246    -221.437     386.471
  H       86.713    -221.123     387.627
  H       97.417    -222.826     386.750
  H       92.360    -222.609     390.736
  H       94.278    -219.974     389.088
  H       92.166    -221.446     387.372
  H       91.247    -219.251     386.890
  H       91.540    -218.365     389.555
  H       90.002    -220.903     388.838
  H       97.149    -226.403     389.426
  H       95.841    -226.144     390.553
  H       89.754    -219.894     390.284
  P       92.618    -217.014     386.527
  C       94.720    -217.311     385.087
  O       94.040    -216.485     386.023
  O       91.673    -215.958     386.985
  O       92.054    -217.801     385.241
  H       91.587    -217.169     384.654
  H       95.216    -218.137     385.619
  H       95.477    -216.721     384.567
  H       94.021    -217.727     384.354
  H       86.627    -220.616     391.822
  H       87.444    -221.554     390.595
  H       85.821    -220.970     390.313

 3  4  5  6  7  8  9  10  11  12  22  25  29  30  31  32 0
 6-311+G(2d,p)
 ****
 33  36  37 0
 6-311+G(2d,p)
 ****
 1  2  13  14  15  16  17  18  19  20  21  23  24  26 0
 3-21G
 ****
 27  28  34  35  38  39  40  41  42  43  44  45  46  47  48 0
 3-21G
 ****


