%nproc=1
%NoSave
%Mem=1900MB
#P OB98/GEN NMR

erre ene a

0 1
  C      185.573     484.216     335.648
  O      185.271     483.112     334.819
  H      186.184     483.873     336.480
  H      184.653     484.659     336.042
  H      186.135     484.967     335.082
  P      184.325     483.396     333.554
  C      182.197     483.112     334.985
  O      182.979     484.000     334.191
  C      180.833     483.729     335.286
  O      180.254     484.199     334.037
  C      179.841     482.741     335.911
  O      179.013     483.438     336.851
  C      178.985     482.313     334.731
  O      177.708     481.823     335.131
  C      178.949     483.600     333.906
  N      175.258     483.790     330.409
  C      175.339     484.276     331.665
  N      176.376     484.199     332.524
  C      177.427     483.590     331.945
  C      177.497     483.050     330.674
  C      176.332     483.157     329.890
  N      176.229     482.638     328.619
  N      178.730     482.467     330.463
  C      179.402     482.668     331.580
  N      178.648     483.326     332.510
  O      184.129     482.250     332.623
  O      185.013     484.694     332.911
  H      177.197     482.561     335.518
  H      185.221     485.358     333.593
  H      174.453     484.782     332.036
  H      180.421     482.348     331.777
  H      178.200     484.312     334.268
  H      179.493     481.512     334.176
  H      180.320     481.896     336.403
  H      180.974     484.612     335.921
  H      182.714     482.894     335.928
  H      175.357     482.763     328.124
  H      177.019     482.167     328.206
  H      182.079     482.177     334.428
  P      179.467     483.485     338.387
  C      177.831     481.795     339.448
  O      179.172     482.055     339.058
  O      178.975     484.655     339.171
  O      181.069     483.497     338.287
  H      181.422     484.132     338.941
  H      177.768     480.817     339.878
  H      177.193     481.849     338.591
  H      177.522     482.522     340.169

 6  7  8  9  10  11  12  13  14  15  25  28  32  33  34  35 0
 6-311+G(2d,p)
 ****
 36  39  40 0
 6-311+G(2d,p)
 ****
 1  2  3  4  5  16  17  18  19  20  21  22  23  24 0
 3-21G
 ****
 26  27  29  30  31  37  38  41  42  43  44  45  46  47 0
 3-21G
 ****
 48 0
 3-21G
 ****


