%nproc=1
%NoSave
%Mem=1900MB
#P OB98/GEN NMR

erre ene a

0 1
  C       15.451      74.134       9.146
  O       16.230      72.960       9.093
  H       14.441      73.898       8.802
  H       15.881      74.889       8.484
  H       15.391      74.529      10.164
  P       17.581      72.893       9.947
  C       19.869      74.088       9.960
  O       18.669      73.838       9.238
  C       20.963      74.658       9.057
  O       21.491      73.611       8.215
  C       20.442      75.755       8.124
  O       20.451      77.057       8.685
  C       21.414      75.658       6.951
  O       22.575      76.477       7.165
  C       21.800      74.174       6.932
  N       21.672      72.845       1.997
  C       22.457      73.799       2.618
  N       23.279      74.503       1.811
  N       22.418      74.038       3.902
  C       21.477      73.323       4.560
  C       20.628      72.367       4.050
  C       20.730      72.055       2.640
  O       20.069      71.210       2.046
  N       19.777      71.881       5.013
  C       20.055      72.606       6.079
  N       21.132      73.436       5.875
  O       18.146      71.424       9.636
  O       17.421      73.095      11.423
  H       23.118      76.057       7.860
  H       18.633      71.091      10.412
  H       21.767      72.685       1.011
  H       19.543      72.538       7.031
  H       22.878      74.044       6.778
  H       20.946      76.010       6.028
  H       23.288      74.420       0.808
  H       19.441      75.509       7.759
  H       23.731      75.337       2.194
  H       21.792      75.020       9.678
  H       20.187      73.130      10.374
  H       19.674      74.762      10.799
  P       19.173      78.008       8.571
  C       17.987      79.283       6.606
  O       19.131      78.622       7.099
  O       19.572      79.261       9.482
  O       17.878      77.397       8.994
  H       19.167      79.186      10.366
  H       18.170      79.615       5.605
  H       17.767      80.126       7.227
  H       17.156      78.609       6.612

 6  7  8  9  10  11  12  13  14  15  26  29  33  34 0
 6-311+G(2d,p)
 ****
 36  38  39  40  41 0
 6-311+G(2d,p)
 ****
 1  2  3  4  5  16  17  18  19  20  21  22  23  24  25 0
 3-21G
 ****
 27  28  30  31  32  35  37  42  43  44  45  46  47 0
 3-21G
 ****
 48  49 0
 3-21G
 ****


