%nproc=1
%NoSave
%Mem=1900MB
#P OB98/GEN NMR

erre ene a

0 1
  C        0.926     -32.492     -49.705
  O        0.795     -31.206     -49.133
  H        1.469     -33.134     -49.007
  H        1.490     -32.433     -50.641
  H       -0.060     -32.926     -49.891
  P        0.042     -30.102     -50.022
  C        2.205     -28.671     -50.045
  O        1.192     -29.305     -50.811
  C        3.227     -28.005     -50.961
  O        3.937     -28.995     -51.738
  C        2.630     -27.017     -51.957
  O        2.422     -25.749     -51.357
  C        3.708     -26.990     -53.031
  O        4.801     -26.124     -52.661
  C        4.161     -28.456     -53.068
  N        2.898     -28.787     -57.944
  C        3.671     -27.854     -57.286
  N        4.133     -26.826     -58.031
  N        3.957     -27.915     -56.013
  C        3.400     -28.980     -55.391
  C        2.629     -29.982     -55.936
  C        2.347     -29.918     -57.353
  O        1.723     -30.747     -58.008
  N        2.265     -30.900     -54.986
  C        2.780     -30.435     -53.864
  N        3.464     -29.262     -54.056
  O       -0.465     -29.034     -48.940
  O       -1.081     -30.611     -50.859
  H        5.558     -26.298     -53.245
  H       -1.291     -28.625     -49.259
  H        2.727     -28.696     -58.930
  H        2.686     -30.907     -52.896
  H        5.232     -28.552     -53.282
  H        3.322     -26.616     -53.980
  H        3.685     -26.554     -58.895
  H        1.700     -27.410     -52.385
  H        4.682     -26.125     -57.551
  H        3.966     -27.505     -50.321
  H        2.710     -29.423     -49.430
  H        1.745     -27.924     -49.389
  P        1.020     -25.015     -51.632
  C        2.185     -23.289     -53.191
  O        1.169     -24.272     -53.046
  O        1.022     -23.809     -50.581
  O       -0.179     -25.889     -51.484
  H        0.117     -23.463     -50.468
  H        2.155     -22.889     -54.183
  H        3.141     -23.736     -53.015
  H        2.023     -22.502     -52.484

 6  7  8  9  10  11  12  13  14  15  26  29  33  34 0
 6-311+G(2d,p)
 ****
 36  38  39  40  41 0
 6-311+G(2d,p)
 ****
 1  2  3  4  5  16  17  18  19  20  21  22  23  24  25 0
 3-21G
 ****
 27  28  30  31  32  35  37  42  43  44  45  46  47 0
 3-21G
 ****
 48  49 0
 3-21G
 ****


