%nproc=1
%NoSave
%Mem=1900MB
#P OB98/GEN NMR

erre ene a

0 1
  C      -90.555      42.426     393.478
  O      -90.025      43.515     394.237
  P      -90.731      44.158     395.515
  C      -91.395      46.398     394.320
  O      -90.686      45.752     395.364
  C      -90.909      47.842     394.058
  O      -89.582      47.808     393.474
  C      -91.811      48.535     393.040
  O      -93.028      49.146     393.461
  C      -90.885      49.474     392.280
  O      -90.870      50.795     392.810
  C      -89.510      48.816     392.441
  N      -86.620      49.401     388.256
  C      -86.915      50.320     389.249
  N      -86.430      51.560     389.091
  N      -87.647      50.034     390.300
  C      -88.145      48.779     390.292
  C      -87.950      47.789     389.354
  C      -87.085      48.086     388.225
  O      -86.782      47.312     387.331
  N      -88.626      46.645     389.673
  C      -89.274      46.950     390.792
  N      -89.006      48.239     391.210
  O      -90.328      43.588     396.834
  O      -92.291      43.809     395.293
  H      -90.235      51.325     392.300
  H      -92.683      43.676     396.182
  H      -86.033      49.657     387.480
  H      -89.928      46.280     391.326
  H      -88.756      49.544     392.773
  H      -91.206      49.565     391.231
  H      -85.968      51.870     388.253
  H      -92.118      47.771     392.317
  H      -86.818      52.287     389.693
  H      -90.815      48.394     395.005
  H      -92.447      46.401     394.602
  H      -91.312      45.816     393.395
  P      -94.501      48.677     393.057
  C      -95.330      50.980     392.286
  O      -95.485      49.931     393.232
  O      -94.947      47.715     394.260
  O      -94.609      47.966     391.745
  H      -95.714      47.167     394.001
  H      -95.816      51.887     392.687
  H      -95.807      50.704     391.347
  H      -94.269      51.193     392.108
  H      -89.886      42.191     392.676
  H      -91.509      42.701     393.078
  H      -90.667      41.571     394.111

 3  4  5  6  7  8  9  10  11  12  23  26  30  31 0
 6-311+G(2d,p)
 ****
 33  35  36  37  38 0
 6-311+G(2d,p)
 ****
 1  2  13  14  15  16  17  18  19  20  21  22  24  25 0
 3-21G
 ****
 27  28  29  32  34  39  40  41  42  43  44  45  46  47  48  49 0
 3-21G
 ****


