%nproc=1
%NoSave
%Mem=1900MB
#P OB98/GEN NMR

erre ene a

0 1
  C       10.430      15.531      -9.929
  O       10.102      16.800     -10.463
  H       11.343      15.171     -10.411
  H        9.631      14.809     -10.122
  H       10.605      15.607      -8.853
  P        8.713      17.470     -10.028
  C        6.226      17.031     -10.588
  O        7.574      16.599     -10.740
  C        5.272      15.864     -10.824
  O        5.465      15.322     -12.146
  C        5.493      14.706      -9.863
  O        4.961      14.999      -8.587
  C        4.812      13.578     -10.613
  O        3.390      13.622     -10.441
  C        5.201      13.901     -12.075
  N        6.351      13.130     -12.535
  C        6.103      11.793     -12.864
  O        4.969      11.328     -12.765
  N        7.157      11.016     -13.275
  C        8.343      11.527     -13.368
  N        9.342      10.702     -13.781
  C        8.645      12.934     -13.045
  C        7.614      13.669     -12.635
  O        8.581      18.948     -10.236
  O        8.568      17.065      -8.485
  H        3.137      14.560     -10.546
  H        8.983      17.739      -7.916
  H        9.649      13.319     -13.142
  H        7.748      14.716     -12.379
  H        4.361      13.700     -12.750
  H        5.158      12.604     -10.271
  H        6.560      14.471      -9.794
  H        4.244      16.240     -10.761
  H        9.091       9.740     -13.983
  H        6.053      17.817     -11.330
  H       10.283      11.009     -13.974
  H        6.066      17.454      -9.591
  P        5.772      14.618      -7.257
  C        6.312      12.402      -6.053
  O        5.499      13.052      -7.027
  O        5.513      15.494      -6.079
  O        7.298      14.644      -7.745
  H        7.622      15.569      -7.868
  H        6.038      11.370      -5.991
  H        6.168      12.867      -5.100
  H        7.341      12.481      -6.337

 6  7  8  9  10  11  12  13  14  15  16  26  30  31  32  33  35 0
 6-311+G(2d,p)
 ****
 37  38 0
 6-311+G(2d,p)
 ****
 1  2  3  4  5  17  18  19  20  21  22  23  24  25 0
 3-21G
 ****
 27  28  29  34  36  39  40  41  42  43  44  45  46 0
 3-21G
 ****


