%nproc=1
%NoSave
%Mem=1900MB
#P OB98/GEN NMR

erre ene a

0 1
  C        2.927       6.566     -16.323
  O        1.569       6.239     -16.514
  H        3.402       5.762     -15.754
  H        3.005       7.495     -15.752
  H        3.450       6.677     -17.276
  P        0.751       6.992     -17.664
  C        0.666       6.892     -20.241
  O        1.428       6.618     -19.072
  C        1.528       7.483     -21.357
  O        1.988       8.801     -20.987
  C        2.786       6.655     -21.621
  O        2.612       5.549     -22.488
  C        3.718       7.693     -22.238
  O        3.492       7.809     -23.653
  C        3.311       8.983     -21.522
  N        7.173      11.971     -20.026
  C        6.574      11.882     -21.266
  N        7.111      12.644     -22.245
  N        5.556      11.103     -21.520
  C        5.189      10.330     -20.472
  C        5.716      10.320     -19.200
  C        6.808      11.227     -18.914
  O        7.379      11.339     -17.834
  N        5.081       9.401     -18.399
  C        4.225       8.807     -19.205
  N        4.235       9.354     -20.467
  O        1.169       8.530     -17.479
  O       -0.737       6.828     -17.605
  H        3.711       6.956     -24.070
  H        0.462       9.109     -17.815
  H        7.936      12.609     -19.880
  H        3.560       7.998     -18.922
  H        3.261       9.829     -22.218
  H        4.769       7.420     -22.108
  H        7.963      13.168     -22.126
  H        3.225       6.317     -20.677
  H        6.878      12.412     -23.212
  H        0.919       7.595     -22.262
  H       -0.109       7.603     -19.952
  H        0.163       5.985     -20.586
  P        3.637       4.321     -22.436
  C        3.977       2.390     -20.725
  O        3.575       3.723     -20.951
  O        5.062       5.046     -22.495
  O        3.477       3.322     -23.528
  H        5.398       5.054     -23.411
  H        3.872       2.157     -19.686
  H        5.000       2.272     -21.016
  H        3.364       1.730     -21.302

 6  7  8  9  10  11  12  13  14  15  26  29  33  34 0
 6-311+G(2d,p)
 ****
 36  38  39  40  41 0
 6-311+G(2d,p)
 ****
 1  2  3  4  5  16  17  18  19  20  21  22  23  24  25 0
 3-21G
 ****
 27  28  30  31  32  35  37  42  43  44  45  46  47 0
 3-21G
 ****
 48  49 0
 3-21G
 ****


