%nproc=1
%NoSave
%Mem=1900MB
#P OB98/GEN NMR

erre ene a

0 1
  C     -220.296    -107.592     112.467
  O     -219.913    -106.905     113.643
  H     -220.899    -106.923     111.849
  H     -220.894    -108.468     112.728
  H     -219.413    -107.900     111.897
  P     -218.828    -107.610     114.588
  C     -216.230    -107.640     114.658
  O     -217.397    -107.371     113.898
  C     -215.003    -107.061     113.953
  O     -214.948    -107.599     112.600
  C     -215.012    -105.532     113.841
  O     -213.668    -105.060     113.981
  C     -215.476    -105.295     112.416
  O     -215.090    -104.034     111.886
  C     -214.821    -106.480     111.699
  N     -215.446    -106.769     110.409
  C     -214.692    -106.528     109.265
  O     -213.515    -106.173     109.263
  N     -215.348    -106.715     108.076
  C     -216.654    -107.085     107.925
  O     -217.193    -107.214     106.830
  C     -217.401    -107.316     109.171
  C     -216.772    -107.148     110.335
  O     -219.100    -109.169     114.346
  O     -218.893    -107.234     116.031
  H     -219.761    -109.502     114.980
  H     -215.519    -103.343     112.431
  H     -214.820    -106.544     107.234
  H     -218.443    -107.600     109.088
  H     -217.302    -107.291     111.274
  H     -213.748    -106.294     111.557
  H     -216.569    -105.362     112.364
  H     -215.655    -105.033     114.573
  H     -214.101    -107.409     114.473
  H     -216.103    -108.723     114.759
  H     -216.340    -107.203     115.657
  P     -213.386    -103.956     115.113
  C     -213.039    -104.275     117.691
  O     -212.828    -104.770     116.376
  O     -214.876    -103.550     115.524
  O     -212.530    -102.832     114.632
  H     -215.496    -104.297     115.491
  H     -212.600    -104.946     118.399
  H     -214.090    -104.196     117.878
  H     -212.587    -103.310     117.786

 6  7  8  9  10  11  12  13  14  15  16  27  31  32  33  34  35 0
 6-311+G(2d,p)
 ****
 36  37 0
 6-311+G(2d,p)
 ****
 1  2  3  4  5  17  18  19  20  21  22  23  24  25 0
 3-21G
 ****
 26  28  29  30  38  39  40  41  42  43  44  45 0
 3-21G
 ****


