%nproc=1
%NoSave
%Mem=1900MB
#P OB98/GEN NMR

erre ene a

0 1
  C     -187.693     167.141     -21.881
  O     -187.392     167.406     -20.524
  H     -187.453     166.097     -22.096
  H     -187.088     167.783     -22.527
  H     -188.756     167.309     -22.075
  P     -187.838     168.838     -19.951
  C     -185.477     169.986     -19.999
  O     -186.537     169.442     -19.234
  C     -184.522     170.781     -19.106
  O     -185.205     171.971     -18.640
  C     -184.039     170.006     -17.878
  O     -182.688     170.383     -17.607
  C     -184.937     170.521     -16.765
  O     -184.351     170.348     -15.479
  C     -185.141     171.983     -17.199
  N     -186.340     172.575     -16.611
  C     -186.144     173.562     -15.640
  O     -185.002     173.886     -15.307
  N     -187.237     174.131     -15.038
  C     -188.425     173.704     -15.331
  N     -189.467     174.290     -14.681
  C     -188.680     172.635     -16.315
  C     -187.605     172.127     -16.918
  O     -188.787     168.422     -18.731
  O     -188.483     169.731     -20.958
  H     -184.140     169.396     -15.356
  H     -188.423     167.706     -18.185
  H     -189.688     172.305     -16.517
  H     -187.699     171.344     -17.660
  H     -184.278     172.594     -16.907
  H     -185.892     169.986     -16.774
  H     -184.103     168.924     -18.008
  H     -183.676     171.119     -19.716
  H     -189.245     175.004     -13.997
  H     -185.870     170.641     -20.783
  H     -190.427     174.001     -14.788
  H     -184.947     169.158     -20.480
  P     -181.491     169.464     -18.139
  C     -181.287     168.125     -15.934
  O     -180.627     168.945     -16.893
  O     -180.701     170.021     -19.275
  O     -182.257     168.126     -18.602
  H     -181.850     167.825     -19.437
  H     -180.597     167.853     -15.163
  H     -181.654     167.241     -16.413
  H     -182.106     168.665     -15.506

 6  7  8  9  10  11  12  13  14  15  16  26  30  31  32  33  35 0
 6-311+G(2d,p)
 ****
 37  38 0
 6-311+G(2d,p)
 ****
 1  2  3  4  5  17  18  19  20  21  22  23  24  25 0
 3-21G
 ****
 27  28  29  34  36  39  40  41  42  43  44  45  46 0
 3-21G
 ****


