%nproc=1
%NoSave
%Mem=1900MB
#P OB98/GEN NMR

erre ene a

0 1
  C     -150.512     459.846     -61.598
  O     -151.604     459.237     -60.938
  H     -150.832     460.238     -62.568
  H     -150.147     460.674     -60.987
  H     -149.703     459.123     -61.736
  P     -152.293     458.002     -61.699
  C     -153.841     459.597     -63.025
  O     -152.860     458.574     -63.092
  C     -154.803     459.481     -64.206
  O     -155.482     458.200     -64.113
  C     -155.870     460.584     -64.258
  O     -155.920     461.178     -65.563
  C     -157.179     459.850     -64.013
  O     -158.272     460.410     -64.734
  C     -156.853     458.433     -64.464
  N     -161.542     456.432     -64.534
  C     -160.841     457.097     -65.481
  N     -159.558     457.516     -65.434
  C     -158.984     457.155     -64.272
  C     -159.563     456.458     -63.224
  C     -160.915     456.104     -63.380
  N     -161.646     455.476     -62.395
  N     -158.664     456.282     -62.192
  C     -157.568     456.907     -62.592
  N     -157.721     457.461     -63.834
  O     -153.617     457.735     -60.834
  O     -151.444     456.779     -61.793
  H     -158.382     461.328     -64.421
  H     -153.573     456.829     -60.469
  H     -161.380     457.328     -66.392
  H     -156.662     457.020     -62.007
  H     -156.947     458.318     -65.553
  H     -157.409     459.885     -62.941
  H     -155.706     461.369     -63.512
  H     -154.216     459.466     -65.135
  H     -153.351     460.580     -63.058
  H     -162.636     455.366     -62.545
  H     -161.218     455.336     -61.495
  H     -154.389     459.508     -62.077
  P     -155.169     462.595     -65.727
  C     -157.105     463.924     -64.596
  O     -155.717     463.578     -64.580
  O     -155.797     463.183     -67.079
  O     -153.684     462.483     -65.821
  H     -155.087     463.383     -67.716
  H     -157.319     464.580     -63.778
  H     -157.695     463.036     -64.505
  H     -157.340     464.415     -65.517

 6  7  8  9  10  11  12  13  14  15  25  28  32  33  34  35 0
 6-311+G(2d,p)
 ****
 36  39  40 0
 6-311+G(2d,p)
 ****
 1  2  3  4  5  16  17  18  19  20  21  22  23  24 0
 3-21G
 ****
 26  27  29  30  31  37  38  41  42  43  44  45  46  47  48 0
 3-21G
 ****


