%nproc=1
%NoSave
%Mem=1900MB
#P OB98/GEN NMR

erre ene a

0 1
  C      -20.944     455.513    1190.345
  O      -22.366     455.561    1190.281
  P      -23.115     455.992    1188.930
  C      -22.640     453.696    1187.874
  O      -22.444     455.105    1187.774
  C      -22.948     453.120    1186.490
  O      -24.119     453.801    1185.959
  C      -21.867     453.314    1185.425
  O      -20.838     452.340    1185.442
  C      -22.679     453.160    1184.149
  O      -22.919     451.755    1183.903
  C      -24.003     453.865    1184.512
  N      -24.807     456.991    1180.552
  C      -24.884     455.646    1180.677
  N      -24.636     454.878    1181.753
  C      -24.308     455.660    1182.814
  C      -24.185     457.034    1182.841
  C      -24.451     457.711    1181.634
  N      -24.388     459.091    1181.526
  N      -23.802     457.469    1184.094
  C      -23.719     456.372    1184.815
  N      -24.022     455.251    1184.083
  O      -23.158     457.462    1188.691
  O      -24.575     455.353    1189.073
  H      -23.369     451.689    1183.044
  H      -25.189     455.765    1188.441
  H      -25.197     455.109    1179.783
  H      -23.439     456.324    1185.858
  H      -24.874     453.355    1184.093
  H      -22.174     453.560    1183.261
  H      -21.448     454.329    1185.457
  H      -23.192     452.063    1186.595
  H      -23.495     453.514    1188.539
  H      -24.707     459.497    1180.666
  H      -24.271     459.633    1182.368
  H      -21.759     453.225    1188.296
  P      -19.483     452.673    1184.641
  C      -18.539     453.655    1186.880
  O      -18.738     453.812    1185.496
  O      -19.687     452.988    1183.203
  O      -18.582     451.375    1184.891
  H      -18.283     451.242    1185.819
  H      -17.882     454.449    1187.229
  H      -18.062     452.694    1187.096
  H      -19.492     453.710    1187.409
  H      -20.641     455.205    1191.324
  H      -20.545     456.484    1190.137
  H      -20.578     454.814    1189.622

 3  4  5  6  7  8  9  10  11  12  22  25  29  30  31  32 0
 6-311+G(2d,p)
 ****
 33  36  37 0
 6-311+G(2d,p)
 ****
 1  2  13  14  15  16  17  18  19  20  21  23  24  26 0
 3-21G
 ****
 27  28  34  35  38  39  40  41  42  43  44  45  46  47  48 0
 3-21G
 ****


