%nproc=1
%NoSave
%Mem=1900MB
#P OB98/GEN NMR

erre ene a

0 1
  C      -57.410     -57.913     -31.931
  O      -56.691     -57.574     -30.740
  P      -57.464     -56.720     -29.624
  C      -55.405     -56.950     -28.061
  O      -56.384     -56.088     -28.620
  C      -54.331     -57.322     -29.093
  O      -53.796     -56.131     -29.735
  C      -53.139     -58.072     -28.492
  O      -52.607     -58.948     -29.493
  C      -52.141     -56.959     -28.242
  O      -50.814     -57.462     -28.088
  C      -52.378     -56.094     -29.478
  N      -48.901     -52.711     -30.855
  C      -49.043     -54.037     -31.212
  N      -48.145     -54.524     -32.094
  N      -49.984     -54.818     -30.747
  C      -50.831     -54.182     -29.901
  C      -50.791     -52.878     -29.465
  C      -49.731     -52.034     -29.969
  O      -49.548     -50.857     -29.676
  N      -51.812     -52.613     -28.587
  C      -52.462     -53.757     -28.489
  N      -51.928     -54.728     -29.294
  O      -58.177     -57.850     -28.740
  O      -58.462     -55.761     -30.182
  H      -50.296     -56.779     -27.610
  H      -59.136     -57.842     -28.907
  H      -48.152     -52.159     -31.236
  H      -53.317     -53.937     -27.855
  H      -51.860     -56.483     -30.364
  H      -52.409     -56.416     -27.326
  H      -47.428     -53.964     -32.530
  H      -53.365     -58.648     -27.591
  H      -48.251     -55.481     -32.405
  H      -54.795     -57.933     -29.875
  H      -55.878     -57.862     -27.686
  H      -54.964     -56.465     -27.185
  P      -52.863     -60.517     -29.295
  C      -52.907     -61.043     -31.836
  O      -52.260     -61.235     -30.593
  O      -54.445     -60.667     -29.483
  O      -52.400     -61.063     -27.985
  H      -54.768     -61.458     -29.016
  H      -52.329     -60.334     -32.433
  H      -53.928     -60.670     -31.715
  H      -52.945     -62.001     -32.362
  H      -56.776     -58.479     -32.581
  H      -57.721     -57.017     -32.427
  H      -58.270     -58.496     -31.675

 3  4  5  6  7  8  9  10  11  12  23  26  30  31 0
 6-311+G(2d,p)
 ****
 33  35  36  37  38 0
 6-311+G(2d,p)
 ****
 1  2  13  14  15  16  17  18  19  20  21  22  24  25 0
 3-21G
 ****
 27  28  29  32  34  39  40  41  42  43  44  45  46  47  48  49 0
 3-21G
 ****


