%nproc=1
%NoSave
%Mem=1900MB
#P OB98/GEN NMR

erre ene a

0 1
  C     -507.769    -701.352    -185.304
  O     -508.968    -700.740    -184.863
  P     -509.689    -699.615    -185.757
  C     -511.937    -699.949    -184.540
  O     -510.889    -699.048    -184.852
  C     -512.603    -699.558    -183.228
  O     -511.914    -700.135    -182.085
  C     -512.592    -698.059    -182.938
  O     -513.352    -697.231    -183.801
  C     -512.944    -698.032    -181.467
  O     -514.353    -698.160    -181.256
  C     -512.202    -699.296    -180.938
  N     -510.975    -698.949    -180.209
  C     -511.084    -699.000    -178.817
  O     -512.125    -699.308    -178.214
  N     -509.957    -698.647    -178.109
  C     -508.780    -698.241    -178.661
  O     -507.819    -697.896    -177.978
  C     -508.733    -698.190    -180.139
  C     -509.827    -698.551    -180.834
  O     -510.100    -700.053    -187.112
  O     -508.639    -698.406    -185.738
  H     -514.523    -697.993    -180.310
  H     -508.432    -698.059    -184.852
  H     -510.022    -698.674    -177.105
  H     -507.808    -697.869    -180.587
  H     -509.816    -698.522    -181.909
  H     -512.858    -699.882    -180.282
  H     -512.627    -697.096    -180.984
  H     -511.548    -697.715    -183.031
  H     -513.624    -699.966    -183.217
  H     -511.503    -700.964    -184.437
  H     -512.662    -699.975    -185.358
  P     -513.590    -695.675    -183.522
  C     -512.658    -694.978    -185.834
  O     -513.746    -694.923    -184.934
  O     -512.716    -695.015    -182.489
  O     -515.115    -695.665    -182.985
  H     -515.241    -694.938    -182.356
  H     -512.905    -694.387    -186.733
  H     -512.474    -696.008    -186.158
  H     -511.762    -694.555    -185.385
  H     -507.446    -702.068    -184.578
  H     -507.013    -700.606    -185.429
  H     -507.942    -701.844    -186.238

 3  4  5  6  7  8  9  10  11  12  13  23  28  29  30  31  32 0
 6-311+G(2d,p)
 ****
 33  34 0
 6-311+G(2d,p)
 ****
 1  2  14  15  16  17  18  19  20  21  22  24  25  26  27 0
 3-21G
 ****
 35  36  37  38  39  40  41  42  43  44  45 0
 3-21G
 ****


