%nproc=1
%NoSave
%Mem=1900MB
#P OB98/GEN NMR

erre ene a

0 1
  C      336.682     875.654    -368.080
  O      337.174     876.669    -367.182
  P      336.733     876.547    -365.645
  C      337.961     876.858    -363.376
  O      337.900     877.191    -364.760
  C      339.068     877.682    -362.678
  O      340.369     877.182    -363.024
  C      339.078     879.147    -363.058
  O      338.086     879.885    -362.357
  C      340.486     879.557    -362.596
  O      340.473     879.839    -361.181
  C      341.307     878.299    -362.882
  N      345.645     879.907    -364.979
  C      345.196     879.996    -363.678
  N      346.043     880.559    -362.803
  N      344.030     879.559    -363.256
  C      343.307     878.970    -364.256
  C      343.634     878.821    -365.585
  C      344.907     879.347    -366.027
  O      345.332     879.333    -367.179
  N      342.648     878.184    -366.277
  C      341.734     877.904    -365.362
  N      342.087     878.374    -364.119
  O      336.857     874.975    -365.351
  O      335.351     877.057    -365.368
  H      341.405     879.935    -360.906
  H      336.252     874.721    -364.635
  H      346.537     880.268    -365.249
  H      340.804     877.362    -365.541
  H      341.989     878.059    -362.073
  H      340.848     880.467    -363.107
  H      346.982     880.859    -363.024
  H      338.993     879.281    -364.148
  H      345.750     880.608    -361.826
  H      338.933     877.567    -361.593
  H      338.186     875.793    -363.256
  H      336.984     877.036    -362.914
  P      336.977     880.653    -363.239
  C      334.471     881.165    -362.758
  O      335.770     880.981    -362.230
  O      336.410     879.498    -364.186
  O      337.514     881.812    -364.027
  H      336.081     879.882    -365.028
  H      334.247     880.437    -363.541
  H      334.399     882.182    -363.175
  H      333.744     881.071    -361.972
  H      337.044     875.846    -369.068
  H      335.612     875.669    -368.083
  H      337.025     874.694    -367.755

 3  4  5  6  7  8  9  10  11  12  23  26  30  31  33  0
 6-311+G(2d,p)
 ****
 35  36  37  38 0
 6-311+G(2d,p)
 ****
 1  2  13  14  15  16  17  18  19  20  21  22  24  25  27  28  29 0
 3-21G
 ****
 32  34  39  40  41  42  43  44  45  46  47  48  49 0
 3-21G
 ****


