%nproc=1
%NoSave
%Mem=1900MB
#P OB98/GEN NMR

erre ene a

0 1
  C     -254.986    -703.246      43.013
  O     -254.670    -702.519      41.831
  P     -254.257    -703.360      40.524
  C     -251.702    -702.917      40.796
  O     -252.748    -703.872      40.761
  C     -251.796    -701.982      39.585
  O     -250.715    -701.011      39.661
  C     -251.680    -702.680      38.226
  O     -252.493    -701.939      37.300
  C     -250.210    -702.504      37.866
  O     -249.966    -702.630      36.466
  C     -249.953    -701.103      38.433
  N     -245.500    -699.766      36.440
  C     -246.726    -699.982      35.818
  N     -246.771    -699.743      34.487
  N     -247.793    -700.385      36.446
  C     -247.598    -700.566      37.782
  C     -246.428    -700.430      38.495
  C     -245.262    -699.944      37.795
  O     -244.181    -699.659      38.315
  N     -246.604    -700.786      39.806
  C     -247.887    -701.060      39.898
  N     -248.546    -700.897      38.705
  O     -254.103    -702.223      39.409
  O     -255.212    -704.440      40.116
  H     -249.003    -702.519      36.322
  H     -254.928    -702.110      38.901
  H     -244.715    -699.436      35.901
  H     -248.395    -701.376      40.795
  H     -250.284    -700.308      37.757
  H     -249.612    -703.257      38.388
  H     -245.996    -699.402      33.949
  H     -251.988    -703.730      38.238
  H     -247.664    -699.862      34.026
  H     -252.742    -701.425      39.647
  H     -250.741    -703.440      40.756
  H     -251.747    -702.341      41.723
  P     -253.300    -702.762      36.179
  C     -251.447    -702.088      34.498
  O     -252.272    -703.116      35.004
  O     -254.227    -701.629      35.520
  O     -254.128    -703.888      36.703
  H     -255.071    -702.034      35.217
  H     -250.566    -702.538      34.026
  H     -251.112    -701.404      35.286
  H     -251.997    -701.516      33.732
  H     -255.240    -702.562      43.795
  H     -254.139    -703.829      43.310
  H     -255.816    -703.894      42.822

 3  4  5  6  7  8  9  10  11  12  23  26  30  31 0
 6-311+G(2d,p)
 ****
 33  35  36  37  38 0
 6-311+G(2d,p)
 ****
 1  2  13  14  15  16  17  18  19  20  21  22  24  25 0
 3-21G
 ****
 27  28  29  32  34  39  40  41  42  43  44  45  46  47  48  49 0
 3-21G
 ****


