%nproc=1
%NoSave
%Mem=1900MB
#P OB98/GEN NMR

erre ene a

0 1
  C      -53.884      -6.844      38.050
  O      -52.482      -6.957      38.207
  H      -54.225      -7.640      37.382
  H      -54.151      -5.879      37.612
  H      -54.378      -6.964      39.018
  P      -51.701      -5.745      38.914
  C      -51.731      -3.180      38.647
  O      -52.106      -4.431      38.077
  C      -52.290      -2.013      37.833
  O      -53.712      -1.879      38.040
  C      -51.714      -0.657      38.213
  O      -50.348      -0.492      37.914
  C      -52.731       0.297      37.605
  O      -52.501       0.523      36.214
  C      -54.047      -0.494      37.802
  N      -54.868       0.055      38.877
  C      -55.881       0.923      38.488
  O      -56.087       1.249      37.318
  N      -56.643       1.441      39.500
  C      -56.462       1.216      40.833
  O      -57.169       1.729      41.694
  C      -55.350       0.320      41.188
  C      -54.615      -0.214      40.207
  O      -50.221      -5.932      39.070
  O      -52.475      -5.546      40.299
  H      -51.542       0.672      36.106
  H      -51.944      -4.998      40.929
  H      -57.394       2.061      39.237
  H      -55.169       0.130      42.236
  H      -53.788      -0.880      40.443
  H      -54.644      -0.474      36.879
  H      -52.727       1.272      38.097
  H      -51.797      -0.542      39.302
  H      -52.128      -2.230      36.772
  H      -50.637      -3.127      38.648
  H      -52.090      -3.127      39.681
  P      -49.271       0.056      38.956
  C      -48.779       2.313      40.182
  O      -49.610       1.588      39.281
  O      -47.845      -0.312      38.702
  O      -49.731      -0.685      40.317
  H      -48.920      -0.871      40.831
  H      -49.148       3.312      40.282
  H      -47.779       2.339      39.803
  H      -48.785       1.833      41.138

 6  7  8  9  10  11  12  13  14  15  16  26  31  32  33  34  35 0
 6-311+G(2d,p)
 ****
 36  37 0
 6-311+G(2d,p)
 ****
 1  2  3  4  5  17  18  19  20  21  22  23  24  25 0
 3-21G
 ****
 27  28  29  30  38  39  40  41  42  43  44  45 0
 3-21G
 ****


