%nproc=1
%NoSave
%Mem=1900MB
#P OB98/GEN NMR

erre ene a

0 1
  C       46.666     206.913      21.212
  O       48.022     207.174      20.918
  P       49.015     206.077      20.316
  C       49.544     204.704      22.458
  O       48.881     204.741      21.199
  C       50.156     203.331      22.773
  O       49.125     202.324      22.719
  C       51.186     202.954      21.704
  O       52.510     203.437      21.790
  C       51.062     201.442      21.552
  O       52.060     200.734      22.290
  C       49.670     201.142      22.108
  N       48.459     197.382      18.931
  C       49.337     197.371      19.997
  N       50.123     196.277      20.102
  N       49.445     198.351      20.856
  C       48.661     199.415      20.561
  C       47.743     199.536      19.546
  C       47.604     198.431      18.628
  O       46.897     198.436      17.622
  N       47.183     200.787      19.511
  C       47.789     201.439      20.481
  N       48.723     200.659      21.122
  O       50.381     206.546      19.930
  O       48.246     205.664      18.958
  H       52.190     201.198      23.136
  H       48.926     205.460      18.288
  H       48.475     196.629      18.254
  H       47.615     202.477      20.737
  H       49.723     200.380      22.897
  H       51.188     201.148      20.504
  H       50.169     195.575      19.378
  H       50.817     203.362      20.754
  H       50.891     196.309      20.763
  H       50.549     203.300      23.793
  H       48.813     204.986      23.221
  H       50.334     205.459      22.474
  P       53.443     203.874      20.567
  C       55.164     202.064      21.119
  O       54.319     202.611      20.124
  O       54.532     204.846      21.228
  O       52.734     204.571      19.452
  H       54.913     205.427      20.542
  H       55.916     201.430      20.641
  H       54.570     201.453      21.807
  H       55.670     202.855      21.680
  H       46.209     207.798      21.603
  H       46.603     206.129      21.937
  H       46.158     206.615      20.319

 3  4  5  6  7  8  9  10  11  12  23  26  30  31 0
 6-311+G(2d,p)
 ****
 33  35  36  37  38 0
 6-311+G(2d,p)
 ****
 1  2  13  14  15  16  17  18  19  20  21  22  24  25 0
 3-21G
 ****
 27  28  29  32  34  39  40  41  42  43  44  45  46  47  48  49 0
 3-21G
 ****


