%nproc=1
%NoSave
%Mem=1900MB
#P OB98/GEN NMR

erre ene a

0 1
  C       -9.762     -22.101     -30.031
  O       -8.822     -22.624     -29.117
  H       -9.682     -22.656     -30.969
  H       -9.561     -21.045     -30.233
  H      -10.777     -22.220     -29.642
  P       -8.658     -21.898     -27.694
  C       -6.933     -20.312     -28.798
  O       -8.141     -20.421     -28.062
  C       -6.429     -18.871     -28.777
  O       -7.331     -17.996     -29.485
  C       -6.306     -18.256     -27.386
  O       -5.194     -18.740     -26.652
  C       -6.163     -16.789     -27.758
  O       -4.830     -16.543     -28.241
  C       -7.197     -16.669     -28.904
  N       -8.496     -16.176     -28.450
  C       -8.753     -14.813     -28.645
  O       -7.912     -14.087     -29.172
  N       -9.945     -14.294     -28.201
  C      -10.798     -15.063     -27.599
  N      -11.943     -14.489     -27.137
  C      -10.576     -16.506     -27.389
  C       -9.417     -16.991     -27.828
  O       -7.845     -22.624     -26.671
  O      -10.159     -21.605     -27.223
  H       -4.847     -15.683     -28.699
  H      -10.113     -21.166     -26.339
  H      -11.316     -17.101     -26.874
  H       -9.173     -18.039     -27.696
  H       -6.826     -16.007     -29.695
  H       -6.335     -16.111     -26.918
  H       -7.233     -18.384     -26.819
  H       -5.472     -18.848     -29.313
  H      -12.041     -13.490     -27.260
  H       -7.126     -20.645     -29.822
  H      -12.512     -14.943     -26.430
  H       -6.164     -20.952     -28.356
  P       -5.309     -18.773     -25.049
  C       -3.574     -16.853     -24.747
  O       -4.898     -17.312     -24.529
  O       -4.071     -19.689     -24.623
  O       -6.610     -19.271     -24.503
  H       -4.344     -20.621     -24.517
  H       -3.467     -15.868     -24.342
  H       -3.373     -16.831     -25.798
  H       -2.884     -17.514     -24.265

 6  7  8  9  10  11  12  13  14  15  16  26  30  31  32  33  35 0
 6-311+G(2d,p)
 ****
 37  38 0
 6-311+G(2d,p)
 ****
 1  2  3  4  5  17  18  19  20  21  22  23  24  25 0
 3-21G
 ****
 27  28  29  34  36  39  40  41  42  43  44  45  46 0
 3-21G
 ****


