%nproc=1
%NoSave
%Mem=1900MB
#P OB98/GEN NMR

erre ene a

0 1
  C     -349.369     211.139     346.326
  O     -349.943     212.407     346.069
  H     -350.170     210.398     346.405
  H     -348.814     211.160     347.265
  H     -348.701     210.848     345.507
  P     -348.926     213.606     345.734
  C     -350.823     215.274     345.021
  O     -349.773     214.952     345.919
  C     -351.662     216.433     345.565
  O     -352.385     215.970     346.737
  C     -350.836     217.656     345.971
  O     -351.580     218.832     345.641
  C     -350.719     217.522     347.480
  O     -350.474     218.778     348.109
  C     -352.053     216.853     347.837
  N     -351.997     216.123     349.104
  C     -352.389     216.825     350.251
  O     -352.746     218.000     350.168
  N     -352.329     216.189     351.463
  C     -351.851     214.980     351.541
  N     -351.802     214.416     352.775
  C     -351.372     214.226     350.362
  C     -351.489     214.847     349.190
  O     -348.773     213.464     344.142
  O     -347.638     213.551     346.483
  H     -350.593     218.665     349.080
  H     -349.611     213.274     343.686
  H     -350.967     213.229     350.483
  H     -351.168     214.361     348.274
  H     -352.854     217.606     347.905
  H     -349.886     216.852     347.730
  H     -349.854     217.693     345.494
  H     -352.420     216.700     344.818
  H     -352.118     214.974     353.556
  H     -351.465     214.401     344.860
  H     -351.403     213.504     352.964
  H     -350.375     215.547     344.059
  P     -350.942     219.901     344.633
  C     -352.747     219.742     342.796
  O     -352.113     220.570     343.760
  O     -349.766     219.431     343.840
  O     -350.513     221.109     345.610
  H     -349.665     221.467     345.289
  H     -353.502     220.302     342.286
  H     -353.195     218.903     343.286
  H     -352.021     219.397     342.090

 6  7  8  9  10  11  12  13  14  15  16  26  30  31  32  33  35 0
 6-311+G(2d,p)
 ****
 37  38 0
 6-311+G(2d,p)
 ****
 1  2  3  4  5  17  18  19  20  21  22  23  24  25 0
 3-21G
 ****
 27  28  29  34  36  39  40  41  42  43  44  45  46 0
 3-21G
 ****


