%nproc=1
%NoSave
%Mem=1900MB
#P OB98/GEN NMR

erre ene a

0 1
  C       69.462    -888.779    -466.097
  O       70.677    -888.113    -466.381
  H       69.013    -889.109    -467.034
  H       68.764    -888.106    -465.590
  H       69.650    -889.660    -465.468
  P       71.478    -887.433    -465.174
  C       72.631    -888.258    -463.010
  O       71.891    -888.616    -464.167
  C       72.716    -889.433    -462.030
  O       71.376    -889.734    -461.540
  C       73.268    -890.727    -462.665
  O       73.929    -891.467    -461.630
  C       71.982    -891.429    -463.076
  O       72.212    -892.784    -463.385
  C       71.098    -891.113    -461.865
  N       69.684    -891.335    -462.142
  C       69.246    -892.657    -462.093
  O       70.041    -893.566    -461.842
  N       67.925    -892.929    -462.351
  C       67.123    -891.967    -462.698
  N       65.837    -892.302    -462.964
  C       67.566    -890.560    -462.820
  C       68.842    -890.316    -462.517
  O       70.808    -886.262    -464.531
  O       72.879    -887.016    -465.829
  H       71.366    -893.274    -463.479
  H       72.898    -886.049    -465.979
  H       66.869    -889.797    -463.130
  H       69.253    -889.312    -462.580
  H       71.387    -891.726    -461.000
  H       71.568    -890.971    -463.982
  H       73.951    -890.540    -463.498
  H       73.319    -889.139    -461.167
  H       65.583    -893.283    -462.874
  H       72.117    -887.416    -462.538
  H       65.135    -891.645    -463.258
  H       73.642    -887.942    -463.294
  P       75.518    -891.420    -461.422
  C       77.197    -889.652    -460.560
  O       75.894    -890.212    -460.430
  O       76.308    -891.424    -462.693
  O       75.863    -892.723    -460.546
  H       76.754    -893.038    -460.784
  H       77.319    -888.863    -459.848
  H       77.321    -889.262    -461.549
  H       77.931    -890.410    -460.381

 6  7  8  9  10  11  12  13  14  15  16  26  30  31  32  33  35 0
 6-311+G(2d,p)
 ****
 37  38 0
 6-311+G(2d,p)
 ****
 1  2  3  4  5  17  18  19  20  21  22  23  24  25 0
 3-21G
 ****
 27  28  29  34  36  39  40  41  42  43  44  45  46 0
 3-21G
 ****


