%nproc=1
%NoSave
%Mem=1900MB
#P OB98/GEN NMR

erre ene a

0 1
  C      -77.375    -126.044     116.799
  O      -78.341    -126.434     115.847
  H      -77.326    -126.804     117.582
  H      -77.666    -125.096     117.256
  H      -76.386    -125.949     116.342
  P      -78.421    -125.649     114.452
  C      -79.369    -123.377     113.676
  O      -79.133    -124.247     114.774
  C      -79.993    -122.069     114.166
  O      -81.339    -122.360     114.651
  C      -79.212    -121.411     115.323
  O      -79.322    -119.988     115.195
  C      -79.998    -121.888     116.526
  O      -79.768    -121.085     117.657
  C      -81.425    -121.834     115.987
  N      -82.344    -122.593     116.829
  C      -82.905    -121.923     117.909
  O      -82.659    -120.750     118.189
  N      -83.716    -122.670     118.723
  C      -83.924    -124.013     118.624
  O      -84.596    -124.645     119.426
  C      -83.262    -124.681     117.491
  C      -82.519    -123.952     116.655
  O      -79.017    -126.402     113.310
  O      -76.912    -125.199     114.165
  H      -80.278    -121.423     118.416
  H      -76.788    -125.013     113.215
  H      -84.140    -122.196     119.505
  H      -83.393    -125.750     117.394
  H      -82.001    -124.412     115.822
  H      -81.776    -120.797     115.914
  H      -79.711    -122.914     116.781
  H      -78.160    -121.703     115.351
  H      -80.100    -121.382     113.319
  H      -80.051    -123.878     112.982
  H      -78.423    -123.174     113.162
  P      -78.027    -119.045     115.097
  C      -76.555    -117.587     116.616
  O      -77.513    -118.638     116.566
  O      -78.184    -117.883     114.169
  O      -76.873    -120.017     114.561
  H      -76.382    -119.567     113.846
  H      -76.284    -117.399     117.634
  H      -76.976    -116.700     116.189
  H      -75.685    -117.871     116.062

 6  7  8  9  10  11  12  13  14  15  16  26  31  32  33  34  35 0
 6-311+G(2d,p)
 ****
 36  37 0
 6-311+G(2d,p)
 ****
 1  2  3  4  5  17  18  19  20  21  22  23  24  25 0
 3-21G
 ****
 27  28  29  30  38  39  40  41  42  43  44  45 0
 3-21G
 ****


