%nproc=1
%NoSave
%Mem=1900MB
#P OB98/GEN NMR

erre ene a

0 1
  C     -465.061    -618.126     725.589
  O     -465.663    -618.477     724.360
  H     -464.376    -618.922     725.885
  H     -465.823    -618.010     726.367
  H     -464.499    -617.196     725.480
  P     -466.799    -617.480     723.808
  C     -465.409    -616.534     721.814
  O     -465.956    -616.307     723.107
  C     -465.946    -615.500     720.831
  O     -465.846    -614.170     721.392
  C     -465.196    -615.435     719.501
  O     -465.537    -616.484     718.611
  C     -465.675    -614.086     718.998
  O     -467.030    -614.202     718.525
  C     -465.602    -613.246     720.289
  N     -464.311    -612.570     720.464
  C     -464.044    -611.499     719.608
  O     -464.864    -611.159     718.752
  N     -462.832    -610.856     719.711
  C     -461.973    -611.234     720.604
  N     -460.789    -610.560     720.657
  C     -462.218    -612.347     721.540
  C     -463.395    -612.963     721.411
  O     -467.346    -616.770     725.135
  O     -467.856    -618.095     722.953
  H     -467.019    -614.851     717.796
  H     -467.952    -616.027     724.893
  H     -461.467    -612.637     722.261
  H     -463.647    -613.792     722.067
  H     -466.398    -612.490     720.313
  H     -465.079    -613.700     718.167
  H     -464.109    -615.389     719.659
  H     -467.012    -615.708     720.672
  H     -460.630    -609.844     719.966
  H     -465.693    -617.543     721.491
  H     -460.007    -610.876     721.213
  H     -464.316    -616.469     721.848
  P     -464.328    -617.285     717.920
  C     -464.536    -619.469     719.326
  O     -463.763    -618.314     719.013
  O     -463.173    -616.183     717.818
  O     -464.652    -617.874     716.584
  H     -462.637    -616.311     717.012
  H     -464.026    -620.049     720.066
  H     -464.672    -620.058     718.443
  H     -465.491    -619.168     719.704

 6  7  8  9  10  11  12  13  14  15  16  26  30  31  32  33  35 0
 6-311+G(2d,p)
 ****
 37  38 0
 6-311+G(2d,p)
 ****
 1  2  3  4  5  17  18  19  20  21  22  23  24  25 0
 3-21G
 ****
 27  28  29  34  36  39  40  41  42  43  44  45  46 0
 3-21G
 ****


