%nproc=1
%NoSave
%Mem=1900MB
#P OB98/GEN NMR

erre ene a

0 1
  C      -45.761      53.348    -124.924
  O      -44.551      52.679    -125.214
  H      -45.538      54.395    -124.702
  H      -46.237      52.901    -124.049
  H      -46.442      53.311    -125.778
  P      -44.613      51.178    -125.771
  C      -44.651      48.818    -124.733
  O      -44.760      50.216    -124.498
  C      -44.407      48.088    -123.417
  O      -43.009      48.150    -123.063
  C      -45.160      48.678    -122.230
  O      -46.528      48.319    -122.270
  C      -44.374      48.081    -121.072
  O      -44.779      46.726    -120.824
  C      -42.929      48.134    -121.621
  N      -42.168      49.280    -121.126
  C      -41.286      49.033    -120.080
  O      -41.162      47.928    -119.553
  N      -40.559      50.109    -119.643
  C      -40.689      51.393    -120.086
  O      -40.050      52.334    -119.623
  C      -41.660      51.602    -121.168
  C      -42.343      50.553    -121.632
  O      -43.532      50.794    -126.726
  O      -46.059      51.091    -126.455
  H      -44.285      46.428    -120.035
  H      -45.973      51.189    -127.421
  H      -39.925      49.952    -118.877
  H      -41.793      52.608    -121.540
  H      -43.068      50.689    -122.427
  H      -42.386      47.221    -121.347
  H      -44.518      48.628    -120.140
  H      -45.042      49.767    -122.209
  H      -44.671      47.031    -123.558
  H      -43.809      48.641    -125.412
  H      -45.571      48.466    -125.208
  P      -47.621      49.176    -121.478
  C      -48.778      48.766    -119.230
  O      -47.541      48.751    -119.931
  O      -48.996      49.149    -122.059
  O      -47.024      50.660    -121.477
  H      -47.522      51.218    -122.106
  H      -48.616      48.469    -118.215
  H      -49.460      48.086    -119.696
  H      -49.188      49.754    -119.252

 6  7  8  9  10  11  12  13  14  15  16  26  31  32  33  34  35 0
 6-311+G(2d,p)
 ****
 36  37 0
 6-311+G(2d,p)
 ****
 1  2  3  4  5  17  18  19  20  21  22  23  24  25 0
 3-21G
 ****
 27  28  29  30  38  39  40  41  42  43  44  45 0
 3-21G
 ****


