%nproc=1
%NoSave
%Mem=1900MB
#P OB98/GEN NMR

erre ene a

0 1
  C     -905.862     261.426    -139.483
  O     -905.119     261.774    -138.311
  P     -904.076     262.982    -138.425
  C     -901.965     261.460    -138.093
  O     -902.782     262.518    -137.604
  C     -900.647     261.410    -137.323
  O     -899.840     262.592    -137.613
  C     -900.811     261.400    -135.810
  O     -901.244     260.127    -135.352
  C     -899.410     261.798    -135.363
  O     -898.530     260.665    -135.398
  C     -899.007     262.820    -136.441
  N     -899.096     264.204    -135.991
  C     -897.904     264.750    -135.506
  O     -896.852     264.122    -135.427
  N     -897.974     266.053    -135.079
  C     -899.105     266.833    -135.074
  O     -899.101     267.994    -134.698
  C     -900.335     266.185    -135.559
  C     -900.278     264.918    -135.985
  O     -904.769     264.080    -137.502
  O     -903.826     263.405    -139.834
  H     -905.230     263.697    -136.737
  H     -898.527     260.340    -136.324
  H     -897.133     266.473    -134.742
  H     -901.245     266.764    -135.542
  H     -901.172     264.419    -136.337
  H     -897.977     262.637    -136.773
  H     -899.391     262.184    -134.335
  H     -901.534     262.166    -135.503
  H     -900.086     260.532    -137.655
  H     -901.754     261.620    -139.154
  H     -902.506     260.519    -137.995
  P     -902.826     259.855    -135.353
  C     -903.101     260.478    -132.826
  O     -903.223     259.504    -133.837
  O     -902.897     258.445    -136.118
  O     -903.627     260.940    -135.987
  H     -902.220     257.813    -135.810
  H     -903.728     260.175    -131.980
  H     -903.429     261.458    -133.177
  H     -902.062     260.530    -132.493
  H     -906.515     260.608    -139.261
  H     -905.186     261.142    -140.262
  H     -906.440     262.268    -139.802

 3  4  5  6  7  8  9  10  11  12  13  24  28  29  30  31  32 0
 6-311+G(2d,p)
 ****
 33  34 0
 6-311+G(2d,p)
 ****
 1  2  14  15  16  17  18  19  20  21  22  23  25  26  27 0
 3-21G
 ****
 35  36  37  38  39  40  41  42  43  44  45 0
 3-21G
 ****


