%nproc=1
%NoSave
%Mem=1900MB
#P OB98/GEN NMR

erre ene a

0 1
  C      192.213     186.010     -86.081
  O      192.604     185.939     -87.456
  P      192.445     187.268     -88.337
  C      194.640     187.787     -89.638
  O      193.877     187.977     -88.452
  C      195.855     186.904     -89.346
  O      195.453     185.604     -88.876
  C      196.709     186.636     -90.574
  O      197.522     187.755     -90.868
  C      197.492     185.399     -90.153
  O      198.726     185.746     -89.503
  C      196.531     184.697     -89.166
  N      196.034     183.430     -89.674
  C      196.176     182.331     -88.822
  O      196.718     182.464     -87.722
  N      195.725     181.107     -89.247
  C      195.203     180.989     -90.428
  N      194.779     179.750     -90.796
  C      195.059     182.118     -91.368
  C      195.492     183.298     -90.931
  O      191.623     188.249     -87.377
  O      191.740     187.052     -89.637
  H      199.201     186.327     -90.133
  H      191.042     188.828     -87.903
  H      194.624     181.968     -92.346
  H      195.427     184.184     -91.556
  H      197.039     184.501     -88.214
  H      197.755     184.779     -91.015
  H      196.068     186.394     -91.430
  H      196.460     187.390     -88.568
  H      194.894     178.998     -90.128
  H      194.967     188.751     -90.033
  H      194.364     179.543     -91.693
  H      193.999     187.335     -90.401
  P      196.811     189.058     -91.465
  C      197.033     190.967     -89.762
  O      196.264     189.857     -90.185
  O      195.458     188.452     -92.075
  O      197.570     189.854     -92.472
  H      194.971     189.141     -92.560
  H      196.453     191.536     -89.032
  H      197.268     191.618     -90.607
  H      197.954     190.621     -89.287
  H      192.371     185.060     -85.616
  H      191.177     186.270     -86.018
  H      192.799     186.753     -85.582

 3  4  5  6  7  8  9  10  11  12  13  21  23  27  28  29  30  32 0
 6-311+G(2d,p)
 ****
 34  35 0
 6-311+G(2d,p)
 ****
 1  2  14  15  16  17  18  19  20  22  24  25  26 0
 3-21G
 ****
 31  33  36  37  38  39  40  41  42  43  44  45  46 0
 3-21G
 ****


