%nproc=1
%NoSave
%Mem=1900MB
#P OB98/GEN NMR

erre ene a

0 1
  C     -138.106     -31.788    -258.223
  O     -137.761     -31.442    -256.897
  P     -136.320     -31.840    -256.310
  C     -137.517     -33.271    -254.537
  O     -136.468     -33.217    -255.502
  C     -138.295     -34.579    -254.669
  O     -138.766     -34.767    -256.021
  C     -137.472     -35.829    -254.357
  O     -137.221     -35.965    -252.974
  C     -138.349     -36.909    -254.968
  O     -139.424     -37.259    -254.078
  C     -138.899     -36.197    -256.225
  N     -138.237     -36.630    -257.443
  C     -138.218     -38.010    -257.681
  O     -138.673     -38.792    -256.849
  N     -137.675     -38.464    -258.860
  C     -137.093     -37.629    -259.665
  N     -136.629     -38.131    -260.845
  C     -136.949     -36.193    -259.370
  C     -137.555     -35.757    -258.266
  O     -135.619     -30.752    -255.565
  O     -135.482     -32.276    -257.603
  H     -134.626     -31.804    -257.600
  H     -139.930     -37.970    -254.524
  H     -136.394     -35.550    -260.043
  H     -137.526     -34.710    -257.983
  H     -139.977     -36.383    -256.319
  H     -137.793     -37.830    -255.176
  H     -136.520     -35.779    -254.905
  H     -139.168     -34.520    -254.002
  H     -136.762     -39.120    -261.016
  H     -138.187     -32.424    -254.703
  H     -136.465     -37.542    -261.658
  H     -137.087     -33.175    -253.531
  P     -135.685     -35.942    -252.506
  C     -136.322     -37.912    -250.951
  O     -135.366     -37.365    -251.837
  O     -135.693     -34.930    -251.267
  O     -134.717     -35.508    -253.559
  H     -134.860     -34.410    -251.260
  H     -136.143     -38.990    -250.866
  H     -137.347     -37.755    -251.308
  H     -136.210     -37.453    -249.959
  H     -139.096     -31.443    -258.435
  H     -138.067     -32.851    -258.336
  H     -137.416     -31.331    -258.902

 3  4  5  6  7  8  9  10  11  12  13  24  27  28  29  30  32 0
 6-311+G(2d,p)
 ****
 34  35 0
 6-311+G(2d,p)
 ****
 1  2  14  15  16  17  18  19  20  21  22  23  25  26 0
 3-21G
 ****
 31  33  36  37  38  39  40  41  42  43  44  45  46 0
 3-21G
 ****


