%nproc=1
%NoSave
%Mem=1900MB
#P OB98/GEN NMR

erre ene a

0 1
  C       11.760      26.797     -52.859
  O       11.011      27.999     -52.985
  P        9.530      27.890     -53.599
  C        8.618      27.469     -55.995
  O        9.724      27.864     -55.191
  C        8.833      27.886     -57.446
  O        8.827      29.323     -57.557
  C       10.156      27.434     -58.044
  O       10.112      26.089     -58.492
  C       10.278      28.382     -59.226
  O        9.451      27.920     -60.310
  C        9.714      29.685     -58.649
  N       12.946      33.434     -59.929
  C       12.096      32.689     -60.666
  N       11.276      31.701     -60.253
  C       11.420      31.482     -58.935
  C       12.275      32.137     -58.064
  C       13.060      33.167     -58.606
  N       13.904      33.946     -57.848
  N       12.144      31.635     -56.788
  C       11.222      30.702     -56.882
  N       10.746      30.579     -58.158
  O        8.920      29.345     -53.326
  O        8.685      26.808     -53.022
  H        9.707      28.434     -61.099
  H        7.944      29.300     -53.314
  H       12.062      32.924     -61.727
  H       10.863      30.101     -56.058
  H        9.118      30.241     -59.380
  H       11.299      28.453     -59.611
  H       10.987      27.607     -57.348
  H        7.992      27.499     -58.036
  H        7.712      27.951     -55.615
  H       14.289      34.776     -58.271
  H       13.836      33.878     -56.839
  H        8.494      26.384     -55.923
  P       11.483      25.256     -58.419
  C       13.806      25.513     -59.554
  O       12.492      26.015     -59.404
  O       11.126      23.903     -59.194
  O       11.972      25.006     -57.032
  H       11.700      23.175     -58.890
  H       14.242      25.937     -60.463
  H       13.805      24.423     -59.644
  H       14.416      25.811     -58.698
  H       12.719      27.017     -52.439
  H       11.886      26.353     -53.824
  H       11.238      26.117     -52.219

 3  4  5  6  7  8  9  10  11  12  22  25  29  30  31  32 0
 6-311+G(2d,p)
 ****
 33  36  37 0
 6-311+G(2d,p)
 ****
 1  2  13  14  15  16  17  18  19  20  21  23  24  26 0
 3-21G
 ****
 27  28  34  35  38  39  40  41  42  43  44  45  46  47  48 0
 3-21G
 ****


