%nproc=1
%NoSave
%Mem=1900MB
#P OB98/GEN NMR

erre ene a

0 1
  C      -75.444      33.302     368.180
  O      -75.602      32.615     369.423
  P      -76.475      31.294     369.625
  C      -76.858      31.518     372.212
  O      -76.286      30.794     371.135
  C      -75.865      31.775     373.367
  O      -74.834      32.695     372.924
  C      -76.569      32.449     374.542
  O      -77.287      31.664     375.490
  C      -75.509      33.347     375.165
  O      -74.818      32.727     376.244
  C      -74.551      33.619     374.001
  N      -72.086      38.029     373.178
  C      -71.627      36.872     373.784
  N      -70.381      36.898     374.277
  N      -72.353      35.785     373.903
  C      -73.615      35.920     373.443
  C      -74.196      37.020     372.853
  C      -73.370      38.200     372.661
  O      -73.720      39.241     372.124
  N      -75.503      36.793     372.526
  C      -75.738      35.559     372.957
  N      -74.614      34.985     373.519
  O      -76.356      30.267     368.549
  O      -77.992      31.844     369.604
  H      -74.291      31.990     375.890
  H      -78.545      31.142     369.199
  H      -71.485      38.830     373.086
  H      -76.684      35.050     372.879
  H      -73.508      33.440     374.293
  H      -75.971      34.257     375.575
  H      -69.823      37.736     374.324
  H      -77.318      33.125     374.116
  H      -70.118      36.140     374.907
  H      -75.347      30.845     373.644
  H      -77.709      30.941     372.569
  H      -77.248      32.477     371.852
  P      -78.749      31.982     376.057
  C      -78.373      31.700     378.578
  O      -78.949      31.142     377.406
  O      -79.732      31.237     375.032
  O      -79.091      33.435     376.157
  H      -80.645      31.574     375.122
  H      -78.299      30.908     379.344
  H      -79.004      32.504     378.954
  H      -77.369      32.091     378.374
  H      -74.811      34.153     368.321
  H      -76.401      33.624     367.826
  H      -75.002      32.643     367.462

 3  4  5  6  7  8  9  10  11  12  23  26  30  31 0
 6-311+G(2d,p)
 ****
 33  35  36  37  38 0
 6-311+G(2d,p)
 ****
 1  2  13  14  15  16  17  18  19  20  21  22  24  25 0
 3-21G
 ****
 27  28  29  32  34  39  40  41  42  43  44  45  46  47  48  49 0
 3-21G
 ****


