%nproc=1
%NoSave
%Mem=1900MB
#P OB98/GEN NMR

erre ene a

0 1
  C      139.398    -365.137      82.522
  O      140.143    -364.273      81.676
  H      138.814    -364.527      83.218
  H      140.063    -365.779      83.104
  H      138.715    -365.750      81.930
  P      141.204    -364.933      80.667
  C      143.404    -366.263      80.977
  O      142.411    -365.441      81.587
  C      144.749    -366.061      81.666
  O      144.642    -366.360      83.073
  C      145.838    -366.977      81.132
  O      146.314    -366.525      79.880
  C      146.840    -366.925      82.269
  O      147.633    -365.732      82.210
  C      145.908    -366.904      83.503
  N      145.730    -368.227      84.098
  C      146.894    -368.838      84.592
  O      147.982    -368.261      84.514
  N      146.790    -370.094      85.136
  C      145.633    -370.680      85.206
  N      145.600    -371.926      85.743
  C      144.385    -370.064      84.707
  C      144.507    -368.854      84.173
  O      141.628    -364.103      79.493
  O      140.497    -366.298      80.217
  H      148.095    -365.761      81.349
  H      139.946    -366.149      79.425
  H      143.445    -370.587      84.787
  H      143.634    -368.329      83.787
  H      146.299    -366.227      84.275
  H      147.523    -367.775      82.244
  H      145.464    -368.005      81.058
  H      145.036    -365.004      81.567
  H      146.483    -372.315      86.069
  H      143.470    -365.956      79.924
  H      144.750    -372.440      85.936
  H      143.110    -367.316      81.020
  P      146.993    -367.548      78.845
  C      149.073    -369.073      78.891
  O      148.315    -368.081      79.587
  O      147.201    -367.020      77.465
  O      146.015    -368.816      78.893
  H      145.172    -368.646      78.416
  H      149.924    -369.349      79.478
  H      149.401    -368.678      77.952
  H      148.462    -369.935      78.722

 6  7  8  9  10  11  12  13  14  15  16  26  30  31  32  33  35 0
 6-311+G(2d,p)
 ****
 37  38 0
 6-311+G(2d,p)
 ****
 1  2  3  4  5  17  18  19  20  21  22  23  24  25 0
 3-21G
 ****
 27  28  29  34  36  39  40  41  42  43  44  45  46 0
 3-21G
 ****


