%nproc=1
%NoSave
%Mem=1900MB
#P OB98/GEN NMR

erre ene a

0 1
  C      111.865     615.042     767.738
  O      111.298     616.254     767.288
  H      112.591     614.701     766.995
  H      111.089     614.278     767.842
  H      112.375     615.181     768.694
  P      110.314     617.058     768.266
  C      108.745     619.091     768.011
  O      109.859     618.380     767.479
  C      108.718     620.515     767.450
  O      109.926     621.215     767.844
  C      108.684     620.571     765.936
  O      107.391     620.262     765.436
  C      109.136     622.010     765.701
  O      108.049     622.931     765.858
  C      110.188     622.195     766.813
  N      111.559     622.085     766.306
  C      111.833     622.755     765.129
  O      111.010     623.422     764.507
  N      113.103     622.571     764.618
  C      114.030     621.703     765.104
  O      115.045     621.398     764.495
  C      113.712     621.069     766.396
  C      112.495     621.276     766.924
  O      110.822     617.283     769.652
  O      108.977     616.173     768.272
  H      108.945     615.651     769.095
  H      107.686     622.757     766.744
  H      113.298     623.023     763.741
  H      114.455     620.424     766.859
  H      112.222     620.799     767.860
  H      110.070     623.185     767.292
  H      109.541     622.130     764.688
  H      109.426     619.886     765.511
  H      107.861     621.043     767.901
  H      108.847     619.127     769.109
  H      107.826     618.550     767.766
  P      107.204     619.792     763.915
  C      105.413     618.609     762.491
  O      105.827     618.969     763.808
  O      108.399     619.111     763.320
  O      106.865     621.142     763.121
  H      107.447     621.208     762.348
  H      104.491     618.069     762.542
  H      106.162     617.994     762.037
  H      105.276     619.494     761.906

 6  7  8  9  10  11  12  13  14  15  16  27  31  32  33  34  35 0
 6-311+G(2d,p)
 ****
 36  37 0
 6-311+G(2d,p)
 ****
 1  2  3  4  5  17  18  19  20  21  22  23  24  25 0
 3-21G
 ****
 26  28  29  30  38  39  40  41  42  43  44  45 0
 3-21G
 ****


