%nproc=1
%NoSave
%Mem=1900MB
#P OB98/GEN NMR

erre ene a

0 1
  C     -234.680    -194.328     741.463
  O     -235.174    -195.112     742.527
  P     -235.232    -196.718     742.410
  C     -236.879    -196.553     744.398
  O     -236.618    -197.140     743.121
  C     -238.363    -196.270     744.558
  O     -238.836    -195.352     743.546
  C     -239.263    -197.503     744.449
  O     -239.213    -198.266     745.640
  C     -240.605    -196.866     744.153
  O     -241.252    -196.428     745.367
  C     -240.225    -195.648     743.283
  N     -240.468    -195.881     741.861
  C     -241.764    -195.643     741.420
  O     -242.659    -195.296     742.214
  N     -242.080    -195.872     740.087
  C     -241.145    -196.300     739.281
  N     -241.509    -196.498     737.983
  C     -239.768    -196.600     739.717
  C     -239.495    -196.375     741.011
  O     -234.016    -197.436     742.884
  O     -235.547    -196.949     740.853
  H     -242.031    -195.906     745.094
  H     -234.751    -196.780     740.290
  H     -239.032    -196.985     739.027
  H     -238.503    -196.561     741.423
  H     -240.791    -194.754     743.584
  H     -241.308    -197.556     743.660
  H     -238.943    -198.106     743.582
  H     -238.519    -195.781     745.541
  H     -242.474    -196.325     737.741
  H     -236.319    -195.608     744.455
  H     -240.869    -196.894     737.297
  H     -236.512    -197.227     745.186
  P     -238.588    -199.740     745.602
  C     -239.599    -199.971     747.968
  O     -239.328    -200.618     746.731
  O     -237.089    -199.817     745.637
  O     -239.141    -200.372     744.229
  H     -238.425    -200.827     743.776
  H     -240.381    -200.522     748.485
  H     -239.944    -198.951     747.800
  H     -238.695    -199.952     748.574
  H     -234.723    -193.293     741.732
  H     -235.276    -194.495     740.590
  H     -233.666    -194.602     741.259

 3  4  5  6  7  8  9  10  11  12  13  23  27  28  29  30  32 0
 6-311+G(2d,p)
 ****
 34  35 0
 6-311+G(2d,p)
 ****
 1  2  14  15  16  17  18  19  20  21  22  24  25  26 0
 3-21G
 ****
 31  33  36  37  38  39  40  41  42  43  44  45  46 0
 3-21G
 ****


