%nproc=1
%NoSave
%Mem=1900MB
#P OB98/GEN NMR

erre ene a

0 1
  C     -116.190    -603.538     741.284
  O     -117.458    -602.946     741.140
  H     -115.690    -603.091     742.158
  H     -115.567    -603.369     740.406
  H     -116.292    -604.622     741.473
  P     -118.288    -603.244     739.795
  C     -116.410    -602.636     738.122
  O     -117.664    -602.263     738.686
  C     -115.674    -601.416     737.554
  O     -116.426    -600.830     736.468
  C     -115.491    -600.285     738.571
  O     -114.596    -600.584     739.598
  C     -115.244    -599.081     737.658
  O     -113.887    -598.934     737.286
  C     -116.095    -599.433     736.421
  N     -117.282    -598.590     736.302
  C     -117.194    -597.558     735.367
  O     -116.196    -597.336     734.683
  N     -118.303    -596.747     735.277
  C     -119.424    -596.843     736.031
  O     -120.359    -596.061     735.922
  C     -119.440    -597.933     737.036
  C     -118.383    -598.747     737.111
  O     -119.780    -603.164     739.919
  O     -117.755    -604.687     739.338
  H     -113.651    -599.751     736.786
  H     -118.361    -605.101     738.691
  H     -118.264    -596.015     734.588
  H     -120.320    -598.043     737.661
  H     -118.363    -599.563     737.841
  H     -115.492    -599.306     735.501
  H     -115.551    -598.151     738.147
  H     -116.480    -600.100     739.042
  H     -114.704    -601.745     737.169
  H     -116.613    -603.339     737.319
  H     -115.802    -603.131     738.889
  P     -114.853    -600.207     741.126
  C     -114.730    -597.624     740.847
  O     -114.155    -598.772     741.437
  O     -114.702    -601.307     742.138
  O     -116.418    -599.792     741.089
  H     -116.828    -600.072     741.940
  H     -114.172    -596.757     741.135
  H     -115.743    -597.523     741.177
  H     -114.710    -597.723     739.782

 6  7  8  9  10  11  12  13  14  15  16  26  31  32  33  34  35 0
 6-311+G(2d,p)
 ****
 36  37 0
 6-311+G(2d,p)
 ****
 1  2  3  4  5  17  18  19  20  21  22  23  24  25 0
 3-21G
 ****
 27  28  29  30  38  39  40  41  42  43  44  45 0
 3-21G
 ****


