%nproc=1
%NoSave
%Mem=1900MB
#P OB98/GEN NMR

erre ene a

0 1
  C     -274.970    -221.834     436.250
  O     -274.724    -220.743     437.137
  P     -275.956    -219.919     437.738
  C     -278.012    -220.698     439.103
  O     -276.597    -220.737     438.959
  C     -278.441    -221.562     440.292
  O     -278.023    -222.940     440.128
  C     -277.807    -221.121     441.606
  O     -278.240    -219.888     442.141
  C     -277.973    -222.358     442.476
  O     -279.269    -222.414     443.066
  C     -277.795    -223.490     441.440
  N     -276.482    -224.132     441.529
  C     -276.410    -225.281     442.311
  O     -277.367    -225.730     442.941
  N     -275.182    -225.884     442.375
  C     -274.039    -225.440     441.776
  O     -272.958    -226.006     441.889
  C     -274.169    -224.210     440.984
  C     -275.366    -223.619     440.896
  O     -276.933    -219.396     436.742
  O     -275.230    -218.697     438.491
  H     -279.918    -222.485     442.339
  H     -275.753    -217.890     438.324
  H     -275.115    -226.720     442.933
  H     -273.283    -223.825     440.497
  H     -275.484    -222.712     440.313
  H     -278.556    -224.269     441.592
  H     -277.248    -222.372     443.298
  H     -276.725    -221.003     441.433
  H     -279.529    -221.555     440.353
  H     -278.487    -221.053     438.187
  H     -278.329    -219.659     439.234
  P     -277.321    -218.575     442.182
  C     -276.539    -216.755     440.510
  O     -277.341    -217.893     440.730
  O     -276.000    -218.685     442.867
  O     -278.250    -217.567     443.027
  H     -277.670    -216.983     443.553
  H     -276.690    -216.418     439.479
  H     -275.481    -216.995     440.649
  H     -276.830    -215.945     441.188
  H     -274.038    -222.266     435.949
  H     -275.495    -221.481     435.387
  H     -275.561    -222.573     436.749

 3  4  5  6  7  8  9  10  11  12  13  23  28  29  30  31  32 0
 6-311+G(2d,p)
 ****
 33  34 0
 6-311+G(2d,p)
 ****
 1  2  14  15  16  17  18  19  20  21  22  24  25  26  27 0
 3-21G
 ****
 35  36  37  38  39  40  41  42  43  44  45 0
 3-21G
 ****


