%nproc=1
%NoSave
%Mem=1900MB
#P OB98/GEN NMR

erre ene a

0 1
  C      532.626    -584.183    -644.463
  O      531.217    -584.060    -644.500
  H      532.988    -583.780    -643.513
  H      533.076    -583.612    -645.279
  H      532.912    -585.236    -644.537
  P      530.488    -584.544    -645.846
  C      528.412    -585.327    -644.525
  O      528.914    -584.432    -645.516
  C      527.139    -584.760    -643.896
  O      527.516    -583.696    -642.971
  C      526.154    -584.164    -644.917
  O      524.813    -584.421    -644.482
  C      526.430    -582.674    -644.830
  O      525.324    -581.896    -645.278
  C      526.767    -582.520    -643.345
  N      527.231    -578.458    -640.307
  C      526.462    -579.567    -640.221
  N      526.419    -580.614    -641.075
  C      527.328    -580.469    -642.063
  C      528.177    -579.394    -642.277
  C      528.091    -578.332    -641.342
  N      528.848    -577.187    -641.436
  N      528.923    -579.592    -643.424
  C      528.537    -580.764    -643.884
  N      527.560    -581.323    -643.106
  O      530.930    -585.861    -646.382
  O      530.718    -583.286    -646.818
  H      524.512    -582.225    -644.840
  H      530.516    -582.446    -646.367
  H      525.789    -579.607    -639.374
  H      528.919    -581.246    -644.787
  H      525.873    -582.452    -642.712
  H      527.296    -582.425    -645.453
  H      526.299    -584.550    -645.919
  H      526.658    -585.553    -643.295
  H      529.165    -585.493    -643.741
  H      528.729    -576.489    -640.723
  H      529.503    -577.081    -642.199
  H      528.200    -586.287    -645.016
  P      523.737    -584.963    -645.548
  C      523.205    -587.115    -644.227
  O      522.692    -585.914    -644.782
  O      524.318    -585.534    -646.802
  O      522.860    -583.652    -645.848
  H      522.682    -583.619    -646.817
  H      522.414    -587.653    -643.748
  H      523.962    -586.881    -643.508
  H      523.626    -587.717    -645.006

 6  7  8  9  10  11  12  13  14  15  25  28  32  33  34  35 0
 6-311+G(2d,p)
 ****
 36  39  40 0
 6-311+G(2d,p)
 ****
 1  2  3  4  5  16  17  18  19  20  21  22  23  24 0
 3-21G
 ****
 26  27  29  30  31  37  38  41  42  43  44  45  46  47 0
 3-21G
 ****
 48 0
 3-21G
 ****


