%nproc=1
%NoSave
%Mem=1900MB
#P OB98/GEN NMR

erre ene a

0 1
  C     -104.754     -18.383    -117.819
  O     -105.485     -17.491    -118.632
  H     -103.687     -18.227    -118.000
  H     -105.005     -19.415    -118.074
  H     -104.964     -18.196    -116.763
  P     -107.086     -17.531    -118.508
  C     -107.446     -19.352    -120.331
  O     -107.499     -19.022    -118.950
  C     -107.867     -20.809    -120.548
  O     -107.610     -21.178    -121.924
  C     -107.117     -21.796    -119.652
  O     -108.036     -22.762    -119.140
  C     -106.111     -22.450    -120.580
  O     -105.738     -23.755    -120.142
  C     -106.836     -22.391    -121.930
  N     -105.900     -22.418    -123.052
  C     -105.524     -23.678    -123.528
  O     -105.968     -24.699    -122.998
  N     -104.617     -23.755    -124.554
  C     -104.083     -22.672    -125.024
  N     -103.174     -22.816    -126.024
  C     -104.412     -21.325    -124.518
  C     -105.322     -21.272    -123.547
  O     -107.564     -16.627    -119.737
  O     -107.634     -17.100    -117.188
  H     -106.481     -24.365    -120.341
  H     -108.519     -16.389    -119.660
  H     -103.929     -20.452    -124.931
  H     -105.624     -20.325    -123.113
  H     -107.531     -23.236    -122.033
  H     -105.201     -21.838    -120.619
  H     -106.614     -21.313    -118.816
  H     -108.951     -20.882    -120.401
  H     -102.965     -23.754    -126.338
  H     -106.423     -19.208    -120.692
  H     -102.675     -22.044    -126.443
  H     -108.119     -18.691    -120.885
  P     -108.423     -22.610    -117.589
  C     -106.825     -24.436    -116.678
  O     -107.143     -23.054    -116.726
  O     -109.477     -23.789    -117.349
  O     -108.980     -21.269    -117.240
  H     -110.389     -23.442    -117.375
  H     -105.956     -24.581    -116.071
  H     -106.632     -24.792    -117.668
  H     -107.647     -24.977    -116.258

 6  7  8  9  10  11  12  13  14  15  16  26  30  31  32  33  35 0
 6-311+G(2d,p)
 ****
 37  38 0
 6-311+G(2d,p)
 ****
 1  2  3  4  5  17  18  19  20  21  22  23  24  25 0
 3-21G
 ****
 27  28  29  34  36  39  40  41  42  43  44  45  46 0
 3-21G
 ****


