%nproc=1
%NoSave
%Mem=1900MB
#P OB98/GEN NMR

erre ene a

0 1
  C      -35.299    -892.770     344.857
  O      -34.905    -891.420     345.045
  P      -33.465    -891.150     345.712
  C      -32.302    -892.100     347.836
  O      -33.510    -891.860     347.148
  C      -32.423    -893.280     348.788
  O      -32.600    -894.500     348.053
  C      -31.217    -893.490     349.709
  O      -31.225    -892.550     350.756
  C      -31.443    -894.930     350.138
  O      -32.314    -894.990     351.305
  C      -32.115    -895.570     348.918
  N      -31.237    -896.480     348.199
  C      -30.837    -897.610     348.914
  O      -31.188    -897.770     350.093
  N      -29.984    -898.510     348.301
  C      -29.583    -898.290     347.094
  N      -28.750    -899.200     346.530
  C      -29.977    -897.100     346.295
  C      -30.800    -896.240     346.921
  O      -33.520    -889.600     346.069
  O      -32.298    -891.510     344.853
  H      -31.902    -894.410     351.959
  H      -32.615    -889.220     346.088
  H      -29.616    -896.960     345.300
  H      -31.139    -895.340     346.429
  H      -33.027    -896.130     349.215
  H      -30.503    -895.410     350.433
  H      -30.295    -893.410     349.129
  H      -33.358    -893.120     349.394
  H      -28.490    -900.000     347.084
  H      -32.019    -891.210     348.397
  H      -28.398    -899.140     345.581
  H      -31.506    -892.300     347.088
  P      -29.926    -892.460     351.692
  C      -28.422    -894.420     352.353
  O      -29.742    -893.960     352.251
  O      -30.482    -891.680     352.971
  O      -28.718    -891.820     351.117
  H      -29.752    -891.500     353.590
  H      -28.417    -895.370     352.881
  H      -27.790    -893.710     352.902
  H      -28.007    -894.590     351.357
  H      -36.270    -892.799     344.408
  H      -35.329    -893.268     345.804
  H      -34.596    -893.261     344.218

 3  4  5  6  7  8  9  10  11  12  13  21  23  27  28  29  30  32 0
 6-311+G(2d,p)
 ****
 34  35 0
 6-311+G(2d,p)
 ****
 1  2  14  15  16  17  18  19  20  22  24  25  26 0
 3-21G
 ****
 31  33  36  37  38  39  40  41  42  43  44  45  46 0
 3-21G
 ****


