%nproc=1
%NoSave
%Mem=1900MB
#P OB98/GEN NMR

erre ene a

0 1
  C     -627.812     410.314    -683.093
  O     -629.216     410.413    -683.168
  H     -627.401     410.450    -684.097
  H     -627.516     409.324    -682.735
  H     -627.403     411.086    -682.438
  P     -630.090     410.208    -681.837
  C     -630.950     412.624    -681.961
  O     -630.225     411.673    -681.187
  C     -630.798     414.033    -681.386
  O     -629.425     414.236    -680.953
  C     -631.137     415.148    -682.387
  O     -631.989     416.111    -681.765
  C     -629.786     415.779    -682.692
  O     -629.887     417.127    -683.134
  C     -629.063     415.570    -681.354
  N     -627.624     415.742    -681.474
  C     -627.037     416.665    -680.596
  O     -627.734     417.270    -679.783
  N     -625.695     416.926    -680.708
  C     -625.003     416.343    -681.635
  N     -623.687     416.658    -681.705
  C     -625.587     415.382    -682.597
  C     -626.887     415.129    -682.459
  O     -629.582     409.152    -680.916
  O     -631.576     409.921    -682.365
  H     -628.985     417.516    -683.153
  H     -632.075     409.445    -681.656
  H     -624.965     414.931    -683.359
  H     -627.403     414.439    -683.121
  H     -629.440     416.267    -680.594
  H     -629.284     415.202    -683.478
  H     -631.616     414.778    -683.292
  H     -631.417     414.106    -680.484
  H     -623.333     417.330    -681.031
  H     -632.005     412.326    -681.976
  H     -623.055     416.296    -682.398
  H     -630.559     412.608    -682.981
  P     -633.557     415.770    -681.748
  C     -633.722     415.015    -679.267
  O     -633.793     414.634    -680.633
  O     -633.786     415.002    -683.135
  O     -634.428     416.972    -681.631
  H     -634.303     415.565    -683.737
  H     -633.899     414.160    -678.649
  H     -634.463     415.760    -679.066
  H     -632.751     415.412    -679.058

 6  7  8  9  10  11  12  13  14  15  16  26  30  31  32  33  35 0
 6-311+G(2d,p)
 ****
 37  38 0
 6-311+G(2d,p)
 ****
 1  2  3  4  5  17  18  19  20  21  22  23  24  25 0
 3-21G
 ****
 27  28  29  34  36  39  40  41  42  43  44  45  46 0
 3-21G
 ****


