%nproc=1
%NoSave
%Mem=1900MB
#P OB98/GEN NMR

erre ene a

0 1
  C     -159.493     244.868     107.191
  O     -159.434     243.769     106.270
  P     -160.674     242.737     106.314
  C     -162.381     243.569     104.539
  O     -161.316     242.670     104.844
  C     -163.014     243.269     103.175
  O     -162.093     243.668     102.126
  C     -163.354     241.791     102.938
  O     -164.575     241.728     102.181
  C     -162.231     241.316     102.026
  O     -162.606     240.166     101.269
  C     -161.989     242.578     101.196
  N     -159.398     244.369      97.231
  C     -160.674     244.685      97.672
  N     -161.351     245.595      96.932
  N     -161.221     244.161      98.732
  C     -160.412     243.296      99.392
  C     -159.130     242.902      99.064
  C     -158.547     243.458      97.855
  O     -157.448     243.177      97.387
  N     -158.633     242.002      99.970
  C     -159.607     241.840     100.847
  N     -160.713     242.599     100.527
  O     -161.763     243.520     107.187
  O     -160.329     241.419     106.923
  H     -163.245     240.466     100.587
  H     -162.030     242.977     107.957
  H     -159.026     244.779      96.386
  H     -159.581     241.178     101.699
  H     -162.776     242.706     100.438
  H     -161.355     241.059     102.634
  H     -160.964     246.077      96.140
  H     -163.447     241.194     103.849
  H     -162.270     245.874      97.267
  H     -163.908     243.890     103.071
  H     -161.998     244.596     104.545
  H     -163.141     243.493     105.328
  P     -165.897     241.322     103.002
  C     -166.817     243.746     102.708
  O     -167.036     242.358     102.536
  O     -165.563     241.781     104.499
  O     -166.259     239.872     102.910
  H     -166.061     241.236     105.137
  H     -165.780     243.966     102.985
  H     -167.480     244.103     103.507
  H     -167.056     244.264     101.778
  H     -158.624     245.481     107.071
  H     -159.530     244.493     108.192
  H     -160.369     245.450     106.996

 3  4  5  6  7  8  9  10  11  12  23  26  30  31  33  0
 6-311+G(2d,p)
 ****
 35  36  37  38 0
 6-311+G(2d,p)
 ****
 1  2  13  14  15  16  17  18  19  20  21  22  24  25  27  28  29 0
 3-21G
 ****
 32  34  39  40  41  42  43  44  45  46  47  48  49 0
 3-21G
 ****


