%nproc=1
%NoSave
%Mem=1900MB
#P OB98/GEN NMR

erre ene a

0 1
  C     -321.554     104.774     131.060
  O     -320.200     105.126     130.752
  P     -319.868     106.666     130.458
  C     -317.931     107.132     132.132
  O     -318.318     106.928     130.781
  C     -316.407     107.051     132.270
  O     -315.950     105.686     132.338
  C     -315.652     107.673     131.106
  O     -315.551     109.083     131.242
  C     -314.284     107.028     131.263
  O     -313.538     107.707     132.292
  C     -314.645     105.609     131.719
  N     -311.864     102.585     128.659
  C     -311.509     103.466     129.621
  N     -312.306     104.248     130.381
  C     -313.598     104.042     130.078
  C     -314.110     103.181     129.123
  C     -313.181     102.426     128.390
  N     -313.548     101.529     127.412
  N     -315.487     103.251     129.087
  C     -315.802     104.130     130.017
  N     -314.693     104.643     130.639
  O     -320.624     107.431     131.645
  O     -320.330     107.141     129.121
  H     -313.272     108.572     131.926
  H     -320.959     108.289     131.325
  H     -310.444     103.554     129.807
  H     -316.809     104.423     130.280
  H     -313.945     105.222     132.470
  H     -313.685     107.081     130.349
  H     -316.098     107.379     130.147
  H     -316.125     107.557     133.205
  H     -318.408     106.390     132.777
  H     -312.826     101.004     126.948
  H     -314.530     101.391     127.221
  H     -318.301     108.110     132.465
  P     -315.855     109.969     129.941
  C     -317.892     111.245     130.923
  O     -316.552     111.305     130.479
  O     -317.044     109.168     129.228
  O     -314.684     110.157     129.035
  H     -317.003     109.298     128.261
  H     -318.103     112.134     131.523
  H     -318.065     110.357     131.536
  H     -318.567     111.232     130.061
  H     -321.618     103.720     131.231
  H     -322.187     105.042     130.240
  H     -321.867     105.297     131.939

 3  4  5  6  7  8  9  10  11  12  22  25  29  30  31  32 0
 6-311+G(2d,p)
 ****
 33  36  37 0
 6-311+G(2d,p)
 ****
 1  2  13  14  15  16  17  18  19  20  21  23  24  26 0
 3-21G
 ****
 27  28  34  35  38  39  40  41  42  43  44  45  46  47  48 0
 3-21G
 ****


