%nproc=1
%NoSave
%Mem=1900MB
#P OB98/GEN NMR

erre ene a

0 1
  C     -806.594    -610.382       3.299
  O     -807.429    -610.298       4.470
  P     -808.409    -611.525       4.788
  C     -807.249    -612.453       6.917
  O     -808.386    -611.805       6.359
  C     -807.170    -612.208       8.428
  O     -806.644    -610.906       8.738
  C     -808.537    -612.272       9.114
  O     -808.930    -613.611       9.393
  C     -808.242    -611.537      10.422
  O     -807.572    -612.422      11.335
  C     -807.282    -610.433       9.955
  N     -808.929    -606.038      12.007
  C     -808.353    -607.133      12.564
  N     -807.954    -608.276      11.945
  C     -808.198    -608.212      10.632
  C     -808.782    -607.164       9.929
  C     -809.164    -606.043      10.676
  N     -809.757    -604.932      10.108
  N     -808.884    -607.474       8.587
  C     -808.352    -608.675       8.470
  N     -807.927    -609.160       9.684
  O     -807.639    -612.782       4.171
  O     -809.767    -611.371       4.182
  H     -807.263    -611.878      12.087
  H     -808.279    -613.423       3.813
  H     -808.183    -607.083      13.629
  H     -808.243    -609.226       7.552
  H     -806.481    -610.244      10.687
  H     -809.146    -611.186      10.923
  H     -809.291    -611.728       8.548
  H     -806.508    -612.967       8.866
  H     -806.339    -612.085       6.444
  H     -809.967    -604.147      10.698
  H     -809.903    -604.912       9.108
  H     -807.306    -613.526       6.695
  P     -810.488    -613.885       9.659
  C     -810.758    -615.074       7.370
  O     -810.869    -615.161       8.771
  O     -811.197    -612.661       8.905
  O     -810.865    -613.944      11.091
  H     -812.045    -612.431       9.355
  H     -810.755    -616.087       6.945
  H     -809.840    -614.573       7.068
  H     -811.624    -614.525       6.963
  H     -806.000    -609.495       3.220
  H     -807.209    -610.478       2.429
  H     -805.953    -611.235       3.379

 3  4  5  6  7  8  9  10  11  12  22  25  29  30  31  32 0
 6-311+G(2d,p)
 ****
 33  36  37 0
 6-311+G(2d,p)
 ****
 1  2  13  14  15  16  17  18  19  20  21  23  24  26 0
 3-21G
 ****
 27  28  34  35  38  39  40  41  42  43  44  45  46  47  48 0
 3-21G
 ****


