%nproc=1
%NoSave
%Mem=1900MB
#P OB98/GEN NMR

erre ene a

0 1
  C     -378.755     -95.014     -75.951
  O     -379.463     -94.400     -74.867
  P     -380.892     -95.001     -74.462
  C     -380.286     -95.918     -72.102
  O     -381.026     -94.972     -72.862
  C     -380.631     -95.793     -70.615
  O     -380.054     -94.605     -70.032
  C     -382.123     -95.696     -70.335
  O     -382.736     -96.976     -70.330
  C     -382.122     -95.104     -68.933
  O     -381.865     -96.140     -67.965
  C     -380.942     -94.128     -68.994
  N     -381.657     -89.441     -67.054
  C     -381.304     -90.611     -66.478
  N     -381.149     -91.823     -67.058
  C     -381.387     -91.749     -68.375
  C     -381.760     -90.629     -69.101
  C     -381.896     -89.428     -68.387
  N     -382.257     -88.239     -68.979
  N     -381.932     -90.942     -70.434
  C     -381.652     -92.229     -70.513
  N     -381.326     -92.762     -69.292
  O     -380.732     -96.563     -74.788
  O     -382.037     -94.403     -75.208
  H     -382.596     -96.784     -68.036
  H     -381.581     -96.926     -75.101
  H     -381.116     -90.569     -65.408
  H     -381.667     -92.813     -71.423
  H     -380.371     -94.106     -68.056
  H     -383.082     -94.650     -68.668
  H     -382.609     -95.006     -71.035
  H     -380.213     -96.668     -70.093
  H     -379.214     -95.768     -72.254
  H     -382.306     -87.414     -68.406
  H     -382.416     -88.219     -69.977
  H     -380.513     -96.925     -72.471
  P     -384.248     -97.068     -70.850
  C     -384.005     -99.519     -71.673
  O     -384.638     -98.623     -70.783
  O     -384.110     -96.767     -72.419
  O     -385.193     -96.123     -70.181
  H     -384.920     -96.335     -72.750
  H     -384.148    -100.538     -71.297
  H     -382.936     -99.317     -71.743
  H     -384.460     -99.442     -72.665
  H     -377.825     -94.507     -76.102
  H     -379.344     -94.952     -76.842
  H     -378.567     -96.041     -75.718

 3  4  5  6  7  8  9  10  11  12  22  25  29  30  31  32 0
 6-311+G(2d,p)
 ****
 33  36  37 0
 6-311+G(2d,p)
 ****
 1  2  13  14  15  16  17  18  19  20  21  23  24  26 0
 3-21G
 ****
 27  28  34  35  38  39  40  41  42  43  44  45  46  47  48 0
 3-21G
 ****


