%nproc=1
%NoSave
%Mem=1900MB
#P OB98/GEN NMR

erre ene a

0 1
  C     -160.878     370.424     -30.935
  O     -160.227     369.704     -29.906
  H     -161.671     371.045     -30.515
  H     -160.148     371.070     -31.431
  H     -161.297     369.733     -31.672
  P     -161.137     368.720     -29.024
  C     -162.934     369.160     -27.206
  O     -161.715     369.586     -27.798
  C     -163.281     370.059     -26.022
  O     -162.425     369.696     -24.907
  C     -163.108     371.564     -26.286
  O     -164.342     372.253     -26.062
  C     -162.104     372.023     -25.237
  O     -162.424     373.290     -24.669
  C     -162.153     370.909     -24.194
  N     -158.944     373.435     -21.141
  C     -160.259     373.609     -21.393
  N     -161.082     372.839     -22.134
  C     -160.421     371.772     -22.621
  C     -159.090     371.448     -22.434
  C     -158.327     372.348     -21.666
  N     -156.975     372.201     -21.454
  N     -158.769     370.279     -23.099
  C     -159.879     369.928     -23.717
  N     -160.899     370.811     -23.473
  O     -160.064     367.754     -28.327
  O     -162.161     367.947     -29.789
  H     -162.288     373.956     -25.370
  H     -160.347     366.824     -28.427
  H     -160.712     374.491     -20.948
  H     -159.988     369.079     -24.382
  H     -162.956     371.061     -23.464
  H     -161.112     372.093     -25.702
  H     -162.744     371.778     -27.300
  H     -164.313     369.842     -25.716
  H     -162.829     368.127     -26.851
  H     -156.487     372.954     -20.992
  H     -156.489     371.455     -21.933
  H     -163.727     369.188     -27.963
  P     -165.147     372.738     -27.370
  C     -165.028     374.796     -28.963
  O     -164.397     374.041     -27.936
  O     -166.501     373.331     -26.757
  O     -165.406     371.654     -28.360
  H     -167.222     373.268     -27.413
  H     -164.407     375.626     -29.229
  H     -165.973     375.156     -28.612
  H     -165.180     374.175     -29.821

 6  7  8  9  10  11  12  13  14  15  25  28  32  33  34  35 0
 6-311+G(2d,p)
 ****
 36  39  40 0
 6-311+G(2d,p)
 ****
 1  2  3  4  5  16  17  18  19  20  21  22  23  24 0
 3-21G
 ****
 26  27  29  30  31  37  38  41  42  43  44  45  46  47  48 0
 3-21G
 ****


