%nproc=1
%NoSave
%Mem=1900MB
#P OB98/GEN NMR

erre ene a

0 1
  C      267.371    -149.312     589.344
  O      266.259    -148.471     589.061
  P      265.045    -148.485     590.117
  C      264.484    -146.042     589.448
  O      264.001    -147.366     589.645
  C      263.364    -145.030     589.717
  O      262.813    -145.238     591.042
  C      263.804    -143.565     589.686
  O      263.980    -143.106     588.369
  C      262.644    -142.914     590.434
  O      261.512    -142.769     589.556
  C      262.320    -143.960     591.518
  N      262.055    -141.075     595.748
  C      261.276    -141.117     594.634
  N      261.423    -141.898     593.543
  C      262.499    -142.699     593.676
  C      263.389    -142.748     594.736
  C      263.129    -141.893     595.805
  N      263.923    -141.843     596.941
  N      264.375    -143.678     594.510
  C      264.086    -144.189     593.331
  N      262.949    -143.646     592.790
  O      265.701    -147.859     591.431
  O      264.454    -149.834     590.379
  H      261.805    -142.229     588.787
  H      265.323    -148.265     592.243
  H      260.439    -140.446     594.625
  H      264.651    -144.970     592.832
  H      261.248    -144.066     591.705
  H      262.891    -141.929     590.830
  H      264.722    -143.434     590.266
  H      262.563    -145.203     588.995
  H      264.814    -145.914     588.417
  H      263.746    -141.107     597.603
  H      264.797    -142.349     596.943
  H      265.332    -145.866     590.117
  P      265.277    -142.204     588.064
  C      265.339    -143.358     585.756
  O      265.318    -142.128     586.468
  O      266.469    -143.234     588.400
  O      265.312    -140.907     588.789
  H      266.338    -144.091     587.972
  H      265.316    -143.162     584.706
  H      264.469    -143.962     586.039
  H      266.260    -143.914     586.009
  H      268.102    -149.209     588.570
  H      267.045    -150.330     589.394
  H      267.802    -149.030     590.282

 3  4  5  6  7  8  9  10  11  12  22  25  29  30  31  32 0
 6-311+G(2d,p)
 ****
 33  36  37 0
 6-311+G(2d,p)
 ****
 1  2  13  14  15  16  17  18  19  20  21  23  24  26 0
 3-21G
 ****
 27  28  34  35  38  39  40  41  42  43  44  45  46  47  48 0
 3-21G
 ****


