%nproc=1
%NoSave
%Mem=1900MB
#P OB98/GEN NMR

erre ene a

0 1
  C      556.917    -234.442     181.969
  O      556.671    -233.293     182.787
  P      555.705    -232.155     182.196
  C      554.254    -231.935     184.360
  O      555.172    -231.326     183.464
  C      554.133    -231.112     185.649
  O      555.221    -231.468     186.562
  C      554.174    -229.595     185.439
  O      553.255    -229.022     186.385
  C      555.598    -229.238     185.804
  O      555.736    -227.867     186.169
  C      555.859    -230.232     186.945
  N      557.281    -230.430     187.215
  C      557.838    -229.676     188.249
  O      557.207    -228.816     188.866
  N      559.155    -229.909     188.514
  C      559.979    -230.744     187.810
  O      561.160    -230.913     188.089
  C      559.368    -231.421     186.661
  C      558.068    -231.235     186.418
  O      554.449    -233.021     181.724
  O      556.354    -231.340     181.124
  H      554.243    -233.764     182.318
  H      556.660    -227.711     186.461
  H      559.571    -229.397     189.275
  H      560.001    -232.047     186.044
  H      557.590    -231.705     185.565
  H      555.380    -229.888     187.873
  H      556.265    -229.439     184.960
  H      553.898    -229.294     184.425
  H      553.192    -231.398     186.143
  H      554.595    -232.942     184.615
  H      553.286    -232.042     183.863
  P      551.801    -228.579     185.860
  C      550.419    -229.483     187.890
  O      550.877    -228.373     187.152
  O      551.280    -229.978     185.262
  O      551.802    -227.485     184.847
  H      551.428    -230.724     185.868
  H      550.015    -229.130     188.840
  H      551.229    -230.192     188.089
  H      549.614    -229.992     187.338
  H      557.572    -235.113     182.484
  H      557.371    -234.135     181.050
  H      555.991    -234.937     181.761

 3  4  5  6  7  8  9  10  11  12  13  24  28  29  30  31  32 0
 6-311+G(2d,p)
 ****
 33  34 0
 6-311+G(2d,p)
 ****
 1  2  14  15  16  17  18  19  20  21  22  23  25  26  27 0
 3-21G
 ****
 35  36  37  38  39  40  41  42  43  44  45 0
 3-21G
 ****


