%nproc=1
%NoSave
%Mem=1900MB
#P OB98/GEN NMR

erre ene a

0 1
  C      -92.698    -214.600     133.741
  O      -91.730    -214.225     134.711
  P      -91.731    -215.026     136.105
  C      -89.274    -214.912     136.934
  O      -90.581    -214.346     136.990
  C      -88.230    -213.895     137.382
  O      -87.845    -213.070     136.262
  C      -88.708    -212.925     138.454
  O      -88.652    -213.500     139.751
  C      -87.689    -211.802     138.309
  O      -86.481    -212.148     139.016
  C      -87.435    -211.782     136.791
  N      -87.206    -207.089     134.896
  C      -86.235    -207.835     135.533
  N      -85.021    -207.257     135.663
  N      -86.435    -209.038     136.008
  C      -87.683    -209.506     135.772
  C      -88.733    -208.865     135.150
  C      -88.512    -207.514     134.678
  O      -89.354    -206.781     134.162
  N      -89.841    -209.669     135.083
  C      -89.455    -210.806     135.629
  N      -88.164    -210.745     136.088
  O      -91.101    -216.445     135.707
  O      -93.065    -215.171     136.750
  H      -85.897    -211.364     138.979
  H      -91.405    -217.128     136.334
  H      -86.995    -206.177     134.535
  H      -90.073    -211.687     135.709
  H      -86.367    -211.671     136.569
  H      -88.039    -210.852     138.721
  H      -84.771    -206.393     135.207
  H      -89.708    -212.547     138.226
  H      -84.285    -207.802     136.095
  H      -87.343    -214.443     137.723
  H      -89.059    -215.216     135.907
  H      -89.246    -215.798     137.576
  P      -89.829    -213.097     140.768
  C      -89.778    -215.358     142.054
  O      -89.553    -213.958     142.090
  O      -91.120    -213.785     140.126
  O      -90.000    -211.630     140.957
  H      -91.926    -213.300     140.388
  H      -89.503    -215.779     141.084
  H      -90.829    -215.560     142.259
  H      -89.166    -215.832     142.823
  H      -92.584    -213.990     132.869
  H      -93.679    -214.464     134.145
  H      -92.560    -215.628     133.478

 3  4  5  6  7  8  9  10  11  12  23  26  30  31  33  0
 6-311+G(2d,p)
 ****
 35  36  37  38 0
 6-311+G(2d,p)
 ****
 1  2  13  14  15  16  17  18  19  20  21  22  24  25  27  28  29 0
 3-21G
 ****
 32  34  39  40  41  42  43  44  45  46  47  48  49 0
 3-21G
 ****


