%nproc=1
%NoSave
%Mem=1900MB
#P OB98/GEN NMR

erre ene a

0 1
  C        7.013     -22.673     -71.709
  O        7.647     -21.434     -71.975
  H        5.931     -22.535     -71.773
  H        7.268     -23.010     -70.701
  H        7.319     -23.424     -72.442
  P        9.237     -21.474     -72.160
  C        9.668     -20.748     -69.676
  O        9.882     -21.706     -70.704
  C       10.148     -21.301     -68.337
  O        9.440     -22.510     -67.998
  C       11.607     -21.724     -68.323
  O       12.492     -20.625     -68.326
  C       11.654     -22.536     -67.035
  O       11.846     -21.699     -65.888
  C       10.250     -23.188     -67.009
  N       10.317     -24.620     -67.235
  C       10.113     -25.417     -66.101
  O        9.876     -24.892     -65.011
  N       10.223     -26.777     -66.225
  C       10.534     -27.297     -67.371
  N       10.659     -28.651     -67.420
  C       10.759     -26.494     -68.591
  C       10.637     -25.173     -68.453
  O        9.586     -19.945     -72.473
  O        9.723     -22.436     -73.191
  H       11.645     -22.255     -65.106
  H        9.185     -19.316     -71.851
  H       11.004     -26.976     -69.526
  H       10.784     -24.508     -69.296
  H        9.765     -23.018     -66.038
  H       12.474     -23.258     -67.044
  H       11.812     -22.402     -69.162
  H        9.943     -20.548     -67.564
  H       10.551     -29.158     -66.549
  H        8.608     -20.478     -69.618
  H       10.974     -29.158     -68.234
  H       10.227     -19.846     -69.940
  P       13.902     -20.693     -69.081
  C       15.120     -21.415     -66.928
  O       14.807     -21.751     -68.276
  O       14.564     -19.378     -69.321
  O       13.558     -21.504     -70.420
  H       13.202     -22.398     -70.277
  H       15.722     -22.188     -66.498
  H       14.215     -21.314     -66.366
  H       15.658     -20.490     -66.907

 6  7  8  9  10  11  12  13  14  15  16  26  30  31  32  33  35 0
 6-311+G(2d,p)
 ****
 37  38 0
 6-311+G(2d,p)
 ****
 1  2  3  4  5  17  18  19  20  21  22  23  24  25 0
 3-21G
 ****
 27  28  29  34  36  39  40  41  42  43  44  45  46 0
 3-21G
 ****


