%nproc=1
%NoSave
%Mem=1900MB
#P OB98/GEN NMR

erre ene a

0 1
  C      226.741     161.204    -282.452
  O      227.847     162.098    -282.295
  P      227.708     163.258    -281.196
  C      228.470     162.131    -278.977
  O      228.798     163.008    -280.049
  C      228.432     162.904    -277.657
  O      227.910     162.091    -276.588
  C      229.807     163.348    -277.184
  O      230.236     164.488    -277.904
  C      229.564     163.613    -275.702
  O      229.159     164.971    -275.464
  C      228.417     162.630    -275.354
  N      228.840     161.578    -274.449
  C      228.144     161.495    -273.239
  O      227.250     162.300    -272.980
  N      228.499     160.519    -272.342
  C      229.480     159.712    -272.620
  N      229.787     158.770    -271.690
  C      230.259     159.784    -273.873
  C      229.889     160.730    -274.734
  O      226.320     162.916    -280.473
  O      227.701     164.640    -281.769
  H      228.967     165.025    -274.504
  H      225.878     163.734    -280.188
  H      231.069     159.097    -274.059
  H      230.402     160.858    -275.681
  H      227.587     163.170    -274.883
  H      230.470     163.446    -275.113
  H      230.524     162.527    -277.301
  H      227.778     163.780    -277.783
  H      229.236     158.753    -270.839
  H      229.200     161.322    -278.914
  H      230.534     158.096    -271.798
  H      227.499     161.664    -279.184
  P      231.657     164.414    -278.635
  C      231.272     163.314    -280.923
  O      231.327     164.529    -280.200
  O      232.029     162.861    -278.492
  O      232.744     165.298    -278.118
  H      232.930     162.702    -278.821
  H      230.841     163.513    -281.907
  H      230.643     162.585    -280.405
  H      232.279     162.915    -281.055
  H      226.968     160.486    -283.212
  H      225.871     161.759    -282.734
  H      226.557     160.698    -281.527

 3  4  5  6  7  8  9  10  11  12  13  21  23  27  28  29  30  32 0
 6-311+G(2d,p)
 ****
 34  35 0
 6-311+G(2d,p)
 ****
 1  2  14  15  16  17  18  19  20  22  24  25  26 0
 3-21G
 ****
 31  33  36  37  38  39  40  41  42  43  44  45  46 0
 3-21G
 ****


