%nproc=1
%NoSave
%Mem=1900MB
#P OB98/GEN NMR

erre ene a

0 1
  C     1628.495     666.734     883.129
  O     1629.437     667.626     882.560
  H     1628.638     665.759     882.668
  H     1627.478     667.074     882.912
  H     1628.646     666.658     884.197
  P     1629.373     669.158     883.043
  C     1631.447     668.955     884.552
  O     1630.042     669.147     884.512
  C     1631.847     668.347     885.909
  O     1631.802     669.388     886.913
  C     1630.930     667.221     886.393
  O     1631.720     666.232     887.093
  C     1630.031     667.874     887.387
  O     1629.449     666.980     888.307
  C     1630.967     668.930     887.970
  N     1630.677     672.024     892.029
  C     1631.625     671.124     891.628
  N     1631.630     670.370     890.524
  C     1630.545     670.635     889.756
  C     1629.531     671.513     890.028
  C     1629.583     672.234     891.244
  N     1628.626     673.100     891.677
  N     1628.559     671.469     889.007
  C     1629.034     670.561     888.144
  N     1630.216     670.023     888.572
  O     1628.029     669.800     882.980
  O     1630.512     669.840     882.155
  H     1629.107     666.214     887.785
  H     1631.322     669.315     882.148
  H     1632.481     671.011     892.294
  H     1628.543     670.293     887.224
  H     1631.597     668.495     888.784
  H     1629.182     668.371     886.840
  H     1630.388     666.725     885.556
  H     1632.909     668.018     885.830
  H     1631.978     669.875     884.396
  H     1628.781     673.573     892.551
  H     1627.808     673.276     891.094
  H     1631.730     668.245     883.744
  P     1632.239     664.941     886.274
  C     1634.433     666.040     885.474
  O     1633.217     665.426     885.071
  O     1631.187     663.989     885.837
  O     1633.286     664.234     887.279
  H     1633.108     663.288     887.296
  H     1634.996     666.318     884.608
  H     1635.002     665.352     886.063
  H     1634.217     666.913     886.054

 6  7  8  9  10  11  12  13  14  15  25  28  32  33  34  35 0
 6-311+G(2d,p)
 ****
 36  39  40 0
 6-311+G(2d,p)
 ****
 1  2  3  4  5  16  17  18  19  20  21  22  23  24 0
 3-21G
 ****
 26  27  29  30  31  37  38  41  42  43  44  45  46  47 0
 3-21G
 ****
 48 0
 3-21G
 ****


