%nproc=1
%NoSave
%Mem=1900MB
#P OB98/GEN NMR

erre ene a

0 1
  C      128.301      84.315      19.740
  O      128.071      84.093      21.125
  P      128.802      85.055      22.180
  C      126.592      86.337      22.621
  O      127.956      86.420      22.233
  C      126.263      87.365      23.704
  O      124.827      87.378      23.922
  C      126.925      87.095      25.059
  O      127.196      88.366      25.661
  C      125.829      86.398      25.843
  O      126.039      86.475      27.250
  C      124.605      87.154      25.331
  N      120.068      87.116      27.685
  C      121.063      88.028      27.668
  N      122.242      87.967      27.015
  C      122.346      86.817      26.328
  C      121.429      85.780      26.280
  C      120.235      85.961      26.999
  N      119.216      85.039      27.010
  N      121.903      84.752      25.491
  C      123.082      85.161      25.071
  N      123.380      86.411      25.532
  O      130.138      85.473      21.405
  O      129.109      84.436      23.499
  H      126.037      87.416      27.508
  H      130.915      85.072      21.842
  H      120.886      88.929      28.249
  H      123.751      84.593      24.441
  H      124.491      88.132      25.815
  H      125.789      85.340      25.563
  H      127.842      86.500      24.998
  H      126.542      88.359      23.332
  H      126.401      85.337      23.020
  H      118.341      85.300      27.434
  H      119.250      84.266      26.353
  H      125.952      86.491      21.747
  P      128.600      88.529      26.416
  C      129.507      90.195      24.648
  O      129.672      88.954      25.308
  O      129.001      87.022      26.778
  O      128.540      89.391      27.634
  H      129.564      87.008      27.573
  H      130.493      90.606      24.418
  H      128.958      90.914      25.263
  H      128.962      90.034      23.714
  H      127.749      83.599      19.168
  H      129.345      84.210      19.531
  H      127.982      85.303      19.479

 3  4  5  6  7  8  9  10  11  12  22  25  29  30  31  32 0
 6-311+G(2d,p)
 ****
 33  36  37 0
 6-311+G(2d,p)
 ****
 1  2  13  14  15  16  17  18  19  20  21  23  24  26 0
 3-21G
 ****
 27  28  34  35  38  39  40  41  42  43  44  45  46  47  48 0
 3-21G
 ****


