%nproc=1
%NoSave
%Mem=1900MB
#P OB98/GEN NMR

erre ene a

0 1
  C       33.946      74.673     -40.244
  O       34.447      73.640     -41.066
  H       34.569      74.739     -39.349
  H       32.921      74.449     -39.939
  H       33.978      75.633     -40.764
  P       33.794      73.416     -42.513
  C       36.020      73.201     -43.791
  O       34.844      73.973     -43.587
  C       35.927      72.452     -45.117
  O       35.492      73.343     -46.167
  C       37.253      71.868     -45.590
  O       37.585      70.708     -44.855
  C       36.945      71.638     -47.062
  O       36.179      70.438     -47.247
  C       36.092      72.884     -47.399
  N       36.868      73.948     -48.036
  C       37.415      73.648     -49.279
  O       37.275      72.561     -49.834
  N       38.175      74.636     -49.850
  C       38.505      75.824     -49.267
  O       39.360      76.581     -49.715
  C       37.838      76.116     -47.989
  C       37.075      75.173     -47.433
  O       32.397      73.913     -42.677
  O       33.879      71.829     -42.721
  H       33.005      71.434     -42.540
  H       36.794      69.693     -47.109
  H       38.615      74.411     -50.730
  H       38.023      77.077     -47.525
  H       36.598      75.355     -46.476
  H       35.269      72.614     -48.072
  H       37.849      71.537     -47.665
  H       38.045      72.621     -45.509
  H       35.171      71.662     -45.011
  H       36.109      72.480     -42.971
  H       36.891      73.863     -43.778
  P       39.107      70.263     -44.654
  C       39.562      71.265     -42.340
  O       39.828      71.357     -43.732
  O       39.841      69.932     -45.911
  O       39.020      68.984     -43.692
  H       39.504      68.242     -44.102
  H       40.091      72.039     -41.824
  H       39.883      70.311     -41.978
  H       38.512      71.376     -42.169

 6  7  8  9  10  11  12  13  14  15  16  27  31  32  33  34  35 0
 6-311+G(2d,p)
 ****
 36  37 0
 6-311+G(2d,p)
 ****
 1  2  3  4  5  17  18  19  20  21  22  23  24  25 0
 3-21G
 ****
 26  28  29  30  38  39  40  41  42  43  44  45 0
 3-21G
 ****


