%nproc=1
%NoSave
%Mem=1900MB
#P OB98/GEN NMR

erre ene a

0 1
  C     -544.688     -32.497     -20.848
  O     -543.664     -33.405     -21.208
  H     -544.247     -31.531     -20.596
  H     -545.359     -32.366     -21.704
  H     -545.263     -32.879     -20.002
  P     -542.742     -33.976     -20.026
  C     -542.818     -36.355     -21.065
  O     -542.002     -35.280     -20.617
  C     -541.951     -37.519     -21.548
  O     -541.266     -37.111     -22.766
  C     -540.882     -37.972     -20.536
  O     -540.776     -39.399     -20.596
  C     -539.599     -37.363     -21.086
  O     -538.433     -38.076     -20.688
  C     -539.872     -37.415     -22.589
  N     -535.039     -35.980     -23.313
  C     -535.582     -37.097     -22.788
  N     -536.885     -37.428     -22.681
  C     -537.657     -36.482     -23.247
  C     -537.260     -35.288     -23.826
  C     -535.868     -35.040     -23.833
  N     -535.318     -33.867     -24.302
  N     -538.355     -34.562     -24.246
  C     -539.396     -35.291     -23.903
  N     -539.028     -36.461     -23.296
  O     -543.822     -34.584     -19.012
  O     -541.851     -32.978     -19.361
  H     -538.488     -38.985     -21.033
  H     -544.122     -33.887     -18.396
  H     -534.868     -37.825     -22.394
  H     -540.434     -35.008     -24.043
  H     -539.675     -38.408     -23.018
  H     -539.509     -36.326     -20.738
  H     -541.081     -37.657     -19.504
  H     -542.608     -38.357     -21.813
  H     -543.443     -36.010     -21.900
  H     -534.331     -33.731     -24.168
  H     -535.928     -33.119     -24.589
  H     -543.469     -36.683     -20.243
  P     -541.758     -40.247     -19.650
  C     -542.676     -41.792     -21.538
  O     -541.970     -41.695     -20.306
  O     -543.179     -39.533     -19.862
  O     -541.355     -40.262     -18.210
  H     -543.704     -39.581     -19.042
  H     -542.730     -42.818     -21.838
  H     -542.163     -41.227     -22.288
  H     -543.665     -41.404     -21.414

 6  7  8  9  10  11  12  13  14  15  25  28  32  33  34  35 0
 6-311+G(2d,p)
 ****
 36  39  40 0
 6-311+G(2d,p)
 ****
 1  2  3  4  5  16  17  18  19  20  21  22  23  24 0
 3-21G
 ****
 26  27  29  30  31  37  38  41  42  43  44  45  46  47 0
 3-21G
 ****
 48 0
 3-21G
 ****


