%nproc=1
%NoSave
%Mem=1900MB
#P OB98/GEN NMR

erre ene a

0 1
  C      101.193     -54.928     318.545
  O      100.505     -54.082     319.469
  P       99.265     -54.741     320.246
  C      100.556     -56.115     322.030
  O       99.754     -56.142     320.859
  C       99.685     -56.185     323.285
  O       98.943     -57.416     323.371
  C      100.482     -56.086     324.579
  O      100.811     -54.735     324.847
  C       99.507     -56.677     325.589
  O       98.565     -55.687     326.049
  C       98.787     -57.762     324.771
  N       97.602     -62.321     326.642
  C       96.914     -61.124     326.720
  N       95.731     -61.154     327.368
  N       97.347     -60.003     326.208
  C       98.545     -60.123     325.587
  C       99.308     -61.256     325.421
  C       98.818     -62.491     325.996
  O       99.379     -63.579     325.934
  N      100.435     -60.999     324.681
  C      100.411     -59.689     324.513
  N       99.256     -59.119     324.988
  O       98.270     -55.161     319.065
  O       98.610     -53.814     321.214
  H       98.046     -55.366     325.289
  H       97.480     -54.588     319.079
  H       97.226     -63.153     327.063
  H      101.189     -59.112     324.035
  H       97.711     -57.773     324.981
  H      100.019     -57.050     326.480
  H       95.334     -61.984     327.784
  H      101.382     -56.710     324.516
  H       95.207     -60.289     327.430
  H       98.964     -55.358     323.231
  H      101.159     -55.204     322.049
  H      101.259     -56.954     321.994
  P      102.081     -54.444     325.779
  C      103.795     -53.992     323.885
  O      103.390     -54.833     324.946
  O      101.980     -55.588     326.897
  O      102.095     -53.087     326.402
  H      102.153     -55.203     327.776
  H      104.881     -54.056     323.779
  H      103.517     -52.950     324.066
  H      103.327     -54.334     322.957
  H      101.994     -54.383     318.091
  H      100.512     -55.258     317.788
  H      101.587     -55.777     319.064

 3  4  5  6  7  8  9  10  11  12  23  26  30  31 0
 6-311+G(2d,p)
 ****
 33  35  36  37  38 0
 6-311+G(2d,p)
 ****
 1  2  13  14  15  16  17  18  19  20  21  22  24  25 0
 3-21G
 ****
 27  28  29  32  34  39  40  41  42  43  44  45  46  47  48  49 0
 3-21G
 ****


