%nproc=1
%NoSave
%Mem=1900MB
#P OB98/GEN NMR

erre ene a

0 1
  C       69.975     -79.015     270.914
  O       70.753     -78.582     272.017
  P       70.230     -77.293     272.819
  C       71.248     -74.917     272.499
  O       70.555     -76.014     271.915
  C       72.745     -75.015     272.193
  O       72.942     -75.326     270.796
  C       73.525     -73.730     272.443
  O       73.744     -73.526     273.830
  C       74.788     -74.017     271.629
  O       75.662     -74.883     272.369
  C       74.221     -74.747     270.400
  N       76.177     -73.084     265.975
  C       76.654     -73.941     266.901
  N       76.091     -74.316     268.064
  C       74.894     -73.720     268.226
  C       74.294     -72.806     267.378
  C       74.982     -72.489     266.198
  N       74.492     -71.611     265.253
  N       73.079     -72.385     267.892
  C       72.948     -73.042     269.024
  N       74.014     -73.868     269.269
  O       71.274     -77.165     274.026
  O       68.811     -77.386     273.308
  H       76.441     -75.049     271.810
  H       70.831     -76.830     274.833
  H       77.621     -74.385     266.679
  H       72.107     -72.952     269.699
  H       74.867     -75.572     270.066
  H       75.354     -73.108     271.385
  H       72.992     -72.871     272.020
  H       73.164     -75.842     272.792
  H       71.105     -74.932     273.582
  H       75.115     -71.331     264.509
  H       73.673     -71.066     265.491
  H       70.828     -73.978     272.110
  P       74.110     -72.038     274.301
  C       76.503     -71.827     275.229
  O       75.696     -71.934     274.066
  O       74.000     -72.161     275.892
  O       73.284     -70.954     273.676
  H       74.479     -72.940     276.229
  H       77.555     -71.818     274.932
  H       76.321     -72.675     275.894
  H       76.268     -70.889     275.750
  H       70.431     -79.876     270.472
  H       69.916     -78.230     270.189
  H       68.990     -79.266     271.249

 3  4  5  6  7  8  9  10  11  12  22  25  29  30  31  32 0
 6-311+G(2d,p)
 ****
 33  36  37 0
 6-311+G(2d,p)
 ****
 1  2  13  14  15  16  17  18  19  20  21  23  24  26 0
 3-21G
 ****
 27  28  34  35  38  39  40  41  42  43  44  45  46  47  48 0
 3-21G
 ****


