%nproc=1
%NoSave
%Mem=1900MB
#P OB98/GEN NMR

erre ene a

0 1
  C      -18.218     -54.419    -211.272
  O      -19.072     -55.549    -211.471
  P      -19.888     -56.070    -210.195
  C      -22.296     -55.333    -210.830
  O      -21.165     -55.121    -209.997
  C      -23.494     -54.542    -210.303
  O      -24.018     -55.117    -209.086
  C      -23.159     -53.099    -209.953
  O      -23.021     -52.310    -211.122
  C      -24.353     -52.733    -209.077
  O      -25.497     -52.425    -209.891
  C      -24.600     -54.042    -208.310
  N      -25.333     -52.668    -203.437
  C      -26.099     -52.523    -204.541
  N      -25.831     -52.915    -205.804
  C      -24.635     -53.524    -205.869
  C      -23.748     -53.747    -204.830
  C      -24.134     -53.284    -203.561
  N      -23.348     -53.417    -202.439
  N      -22.620     -54.399    -205.285
  C      -22.814     -54.546    -206.580
  N      -24.024     -54.044    -206.978
  O      -18.936     -55.689    -208.966
  O      -20.186     -57.533    -210.230
  H      -26.237     -52.216    -209.286
  H      -18.537     -56.496    -208.592
  H      -27.053     -52.027    -204.390
  H      -22.114     -55.007    -207.264
  H      -25.668     -54.261    -208.198
  H      -24.165     -51.867    -208.436
  H      -22.235     -53.056    -209.364
  H      -24.282     -54.567    -211.067
  H      -22.544     -56.397    -210.870
  H      -23.665     -52.988    -201.585
  H      -22.417     -53.797    -202.538
  H      -22.043     -55.031    -211.852
  P      -21.648     -51.505    -211.322
  C      -21.965     -51.468    -213.870
  O      -21.170     -51.934    -212.796
  O      -20.654     -52.324    -210.379
  O      -21.733     -50.039    -211.067
  H      -20.750     -53.287    -210.500
  H      -21.511     -51.799    -214.808
  H      -22.010     -50.376    -213.863
  H      -22.972     -51.886    -213.798
  H      -17.733     -54.172    -212.193
  H      -17.481     -54.655    -210.533
  H      -18.801     -53.585    -210.941

 3  4  5  6  7  8  9  10  11  12  22  25  29  30  31  32 0
 6-311+G(2d,p)
 ****
 33  36  37 0
 6-311+G(2d,p)
 ****
 1  2  13  14  15  16  17  18  19  20  21  23  24  26 0
 3-21G
 ****
 27  28  34  35  38  39  40  41  42  43  44  45  46  47  48 0
 3-21G
 ****


