%nproc=1
%NoSave
%Mem=1900MB
#P OB98/GEN NMR

erre ene a

0 1
  C      -31.051    -112.630     -26.410
  O      -31.909    -113.588     -25.821
  P      -32.853    -114.511     -26.736
  C      -34.873    -114.040     -28.268
  O      -34.052    -113.550     -27.206
  C      -36.098    -114.766     -27.714
  O      -36.940    -113.850     -26.969
  C      -36.997    -115.372     -28.788
  O      -36.439    -116.571     -29.284
  C      -38.300    -115.557     -28.012
  O      -38.274    -116.766     -27.228
  C      -38.302    -114.313     -27.084
  N      -39.195    -113.262     -27.564
  C      -40.371    -113.081     -26.839
  O      -40.628    -113.810     -25.873
  N      -41.260    -112.118     -27.251
  C      -40.988    -111.415     -28.314
  N      -41.923    -110.481     -28.672
  C      -39.770    -111.600     -29.122
  C      -38.927    -112.534     -28.699
  O      -33.271    -115.805     -26.123
  O      -31.993    -114.698     -28.075
  H      -39.143    -116.805     -26.763
  H      -31.243    -115.321     -27.942
  H      -39.608    -110.991     -30.004
  H      -38.009    -112.729     -29.233
  H      -38.614    -114.598     -26.068
  H      -39.170    -115.614     -28.670
  H      -37.159    -114.645     -29.590
  H      -35.755    -115.544     -27.022
  H      -42.757    -110.402     -28.110
  H      -34.282    -114.737     -28.873
  H      -41.836    -109.905     -29.508
  H      -35.175    -113.200     -28.916
  P      -36.887    -117.123     -30.729
  C      -38.992    -118.134     -31.782
  O      -38.439    -117.469     -30.652
  O      -36.005    -118.188     -31.304
  O      -36.849    -115.811     -31.654
  H      -36.424    -116.028     -32.496
  H      -39.937    -118.603     -31.484
  H      -38.306    -118.908     -32.154
  H      -39.183    -117.411     -32.581
  H      -30.507    -112.119     -25.643
  H      -31.632    -111.924     -26.966
  H      -30.364    -113.122     -27.066

 3  4  5  6  7  8  9  10  11  12  13  23  27  28  29  30  32 0
 6-311+G(2d,p)
 ****
 34  35 0
 6-311+G(2d,p)
 ****
 1  2  14  15  16  17  18  19  20  21  22  24  25  26 0
 3-21G
 ****
 31  33  36  37  38  39  40  41  42  43  44  45  46 0
 3-21G
 ****


