%nproc=1
%NoSave
%Mem=1900MB
#P OB98/GEN NMR

erre ene a

0 1
  C     -395.173       7.838     193.729
  O     -396.268       8.705     193.925
  H     -394.463       8.320     193.051
  H     -395.521       6.907     193.270
  H     -394.663       7.616     194.670
  P     -397.215       8.474     195.193
  C     -399.143       7.128     194.124
  O     -398.005       7.091     194.981
  C     -399.654       5.721     193.805
  O     -398.708       5.044     192.950
  C     -399.817       4.857     195.059
  O     -401.068       4.990     195.705
  C     -399.639       3.449     194.494
  O     -400.888       2.909     194.033
  C     -398.679       3.656     193.316
  N     -395.386      -0.206     193.936
  C     -396.761      -0.251     193.809
  N     -397.323      -1.479     193.891
  N     -397.505       0.810     193.630
  C     -396.811       1.970     193.666
  C     -395.451       2.140     193.808
  C     -394.629       0.956     193.927
  O     -393.407       0.942     194.029
  N     -395.110       3.471     193.838
  C     -396.271       4.100     193.804
  N     -397.323       3.234     193.619
  O     -398.373       9.565     195.000
  O     -396.557       8.635     196.529
  H     -400.804       1.933     194.006
  H     -398.695       9.859     195.871
  H     -394.868      -1.057     194.039
  H     -396.400       5.173     193.862
  H     -398.999       3.087     192.436
  H     -399.265       2.767     195.260
  H     -396.810      -2.316     194.114
  H     -399.005       5.044     195.767
  H     -398.339      -1.537     193.993
  H     -400.594       5.798     193.245
  H     -398.825       7.626     193.208
  H     -399.935       7.731     194.571
  P     -401.182       4.933     197.298
  C     -402.053       2.458     197.241
  O     -401.141       3.404     197.751
  O     -402.698       5.358     197.571
  O     -400.214       5.795     198.041
  H     -402.751       6.301     197.818
  H     -401.852       1.500     197.673
  H     -401.949       2.399     196.178
  H     -403.051       2.757     197.485

 6  7  8  9  10  11  12  13  14  15  26  29  33  34 0
 6-311+G(2d,p)
 ****
 36  38  39  40  41 0
 6-311+G(2d,p)
 ****
 1  2  3  4  5  16  17  18  19  20  21  22  23  24  25 0
 3-21G
 ****
 27  28  30  31  32  35  37  42  43  44  45  46  47 0
 3-21G
 ****
 48  49 0
 3-21G
 ****


