%nproc=1
%NoSave
%Mem=1900MB
#P OB98/GEN NMR

erre ene a

0 1
  C      354.374      89.450    -197.909
  O      353.767      89.873    -196.698
  P      354.086      91.366    -196.196
  C      352.706      91.146    -194.000
  O      353.991      91.314    -194.596
  C      352.832      91.097    -192.479
  O      353.526      89.899    -192.079
  C      353.622      92.251    -191.885
  O      352.830      93.421    -191.840
  C      353.982      91.696    -190.515
  O      352.934      91.941    -189.564
  C      354.129      90.181    -190.793
  N      355.511      89.735    -190.748
  C      356.024      89.465    -189.471
  O      355.313      89.628    -188.474
  N      357.331      89.060    -189.356
  C      358.061      88.937    -190.422
  N      359.349      88.525    -190.250
  C      357.567      89.230    -191.783
  C      356.300      89.628    -191.870
  O      352.782      92.181    -196.627
  O      355.341      91.954    -196.756
  H      353.077      92.857    -189.242
  H      352.994      93.123    -196.761
  H      358.221      89.116    -192.637
  H      355.857      89.867    -192.830
  H      353.561      89.598    -190.057
  H      354.888      92.157    -190.113
  H      354.535      92.431    -192.465
  H      351.820      91.062    -192.053
  H      359.659      88.342    -189.303
  H      352.270      90.207    -194.350
  H      359.991      88.382    -191.015
  H      352.060      91.970    -194.312
  P      353.492      94.787    -192.355
  C      352.553      95.564    -190.095
  O      353.584      95.716    -191.051
  O      352.287      95.464    -193.165
  O      354.732      94.677    -193.179
  H      352.603      96.271    -193.617
  H      352.814      96.128    -189.200
  H      352.436      94.508    -189.829
  H      351.613      95.955    -190.497
  H      354.079      88.444    -198.124
  H      355.438      89.496    -197.809
  H      354.063      90.091    -198.707

 3  4  5  6  7  8  9  10  11  12  13  21  23  27  28  29  30  32 0
 6-311+G(2d,p)
 ****
 34  35 0
 6-311+G(2d,p)
 ****
 1  2  14  15  16  17  18  19  20  22  24  25  26 0
 3-21G
 ****
 31  33  36  37  38  39  40  41  42  43  44  45  46 0
 3-21G
 ****


