%nproc=1
%NoSave
%Mem=1900MB
#P OB98/GEN NMR

erre ene a

0 1
  C      440.226     236.160     657.569
  O      439.025     235.705     658.162
  H      440.723     235.307     657.098
  H      440.890     236.573     658.333
  H      440.019     236.910     656.805
  P      438.044     236.778     658.839
  C      437.091     239.025     658.031
  O      437.498     237.717     657.657
  C      435.754     239.377     657.387
  O      435.937     239.478     655.951
  C      434.653     238.346     657.651
  O      433.417     239.037     657.823
  C      434.612     237.538     656.366
  O      433.331     236.946     656.141
  C      434.988     238.589     655.321
  N      434.308     235.029     651.804
  C      433.478     235.440     652.827
  N      432.300     234.790     652.958
  N      433.777     236.400     653.663
  C      434.981     236.972     653.408
  C      435.890     236.657     652.426
  C      435.552     235.577     651.517
  O      436.248     235.166     650.602
  N      437.008     237.451     652.515
  C      436.779     238.242     653.546
  N      435.563     237.982     654.129
  O      438.613     237.520     660.007
  O      436.759     235.921     659.253
  H      433.448     236.270     655.437
  H      436.778     235.702     660.204
  H      434.030     234.277     651.196
  H      437.450     239.002     653.916
  H      434.125     239.178     654.992
  H      435.358     236.736     656.407
  H      431.990     234.049     652.346
  H      434.855     237.719     658.526
  H      431.665     235.091     653.687
  H      435.451     240.373     657.736
  H      437.860     239.732     657.695
  H      437.010     239.083     659.121
  P      433.087     239.678     659.260
  C      434.685     241.197     660.596
  O      433.924     241.040     659.396
  O      433.176     238.748     660.419
  O      431.578     240.215     659.065
  H      431.129     240.187     659.930
  H      435.197     242.136     660.573
  H      435.399     240.404     660.672
  H      434.029     241.169     661.441

 6  7  8  9  10  11  12  13  14  15  26  29  33  34 0
 6-311+G(2d,p)
 ****
 36  38  39  40  41 0
 6-311+G(2d,p)
 ****
 1  2  3  4  5  16  17  18  19  20  21  22  23  24  25 0
 3-21G
 ****
 27  28  30  31  32  35  37  42  43  44  45  46  47 0
 3-21G
 ****
 48  49 0
 3-21G
 ****


