%nproc=1
%NoSave
%Mem=1900MB
#P OB98/GEN NMR

erre ene a

0 1
  C       42.044      59.362     136.752
  O       42.311      58.372     137.727
  H       41.120      59.879     137.024
  H       41.913      58.906     135.767
  H       42.857      60.093     136.720
  P       43.599      57.439     137.535
  C       46.147      57.857     137.455
  O       44.848      58.432     137.366
  C       47.157      58.711     136.691
  O       46.980      58.545     135.271
  C       47.050      60.209     136.967
  O       47.714      60.544     138.174
  C       47.751      60.767     135.740
  O       49.178      60.625     135.892
  C       47.245      59.825     134.631
  N       45.334      61.860     130.392
  C       46.650      61.679     130.771
  N       47.591      62.131     129.914
  N       47.012      61.116     131.896
  C       45.968      60.777     132.686
  C       44.622      60.923     132.428
  C       44.235      61.485     131.150
  O       43.078      61.641     130.764
  N       43.859      60.550     133.505
  C       44.740      60.129     134.394
  N       46.037      60.256     133.948
  O       43.501      56.397     136.463
  O       43.838      56.795     138.980
  H       49.345      59.716     136.202
  H       43.381      55.937     139.063
  H       45.116      62.307     129.516
  H       44.498      59.723     135.368
  H       48.003      59.656     133.858
  H       47.548      61.828     135.581
  H       47.376      62.702     129.111
  H       46.007      60.545     136.964
  H       48.559      62.058     130.203
  H       48.161      58.338     136.934
  H       46.093      56.852     137.026
  H       46.457      57.774     138.503
  P       47.480      61.961     138.898
  C       45.352      63.329     139.439
  O       45.938      62.320     138.635
  O       48.443      63.029     138.508
  O       47.481      61.613     140.455
  H       48.390      61.590     140.845
  H       44.329      63.462     139.155
  H       45.883      64.248     139.301
  H       45.402      63.039     140.468

 6  7  8  9  10  11  12  13  14  15  26  29  33  34 0
 6-311+G(2d,p)
 ****
 36  38  39  40  41 0
 6-311+G(2d,p)
 ****
 1  2  3  4  5  16  17  18  19  20  21  22  23  24  25 0
 3-21G
 ****
 27  28  30  31  32  35  37  42  43  44  45  46  47 0
 3-21G
 ****
 48  49 0
 3-21G
 ****


