%nproc=1
%NoSave
%Mem=1900MB
#P OB98/GEN NMR

erre ene a

0 1
  C       36.346     176.264     -74.547
  O       37.128     175.404     -73.743
  H       36.780     176.345     -75.546
  H       35.338     175.850     -74.633
  H       36.281     177.255     -74.089
  P       38.663     175.815     -73.525
  C       39.870     177.600     -72.083
  O       38.705     176.806     -72.260
  C       39.867     178.232     -70.692
  O       38.649     179.004     -70.542
  C       39.939     177.224     -69.531
  O       41.078     177.495     -68.708
  C       38.682     177.494     -68.718
  O       38.902     177.441     -67.307
  C       38.260     178.888     -69.168
  N       34.561     179.865     -65.798
  C       35.892     180.100     -65.759
  N       36.807     179.915     -66.731
  C       36.223     179.456     -67.851
  C       34.879     179.189     -68.053
  C       34.029     179.397     -66.952
  N       32.683     179.102     -66.973
  N       34.657     178.719     -69.334
  C       35.852     178.664     -69.884
  N       36.831     179.080     -69.018
  O       38.965     176.779     -74.767
  O       39.623     174.674     -73.464
  H       39.117     176.514     -67.093
  H       39.805     176.515     -75.190
  H       36.273     180.483     -64.814
  H       36.072     178.291     -70.878
  H       38.774     179.679     -68.604
  H       37.924     176.747     -68.975
  H       39.969     176.182     -69.876
  H       40.704     178.937     -70.632
  H       39.888     178.399     -72.833
  H       32.173     179.167     -66.107
  H       32.299     178.647     -67.793
  H       40.757     176.972     -72.221
  P       42.382     176.585     -68.960
  C       43.485     176.265     -71.298
  O       43.129     177.165     -70.258
  O       41.760     175.204     -69.480
  O       43.231     176.397     -67.750
  H       42.363     174.467     -69.271
  H       43.971     176.803     -72.085
  H       42.603     175.794     -71.680
  H       44.149     175.520     -70.913

 6  7  8  9  10  11  12  13  14  15  25  28  32  33  34  35 0
 6-311+G(2d,p)
 ****
 36  39  40 0
 6-311+G(2d,p)
 ****
 1  2  3  4  5  16  17  18  19  20  21  22  23  24 0
 3-21G
 ****
 26  27  29  30  31  37  38  41  42  43  44  45  46  47  48 0
 3-21G
 ****


