%nproc=1
%NoSave
%Mem=1900MB
#P OB98/GEN NMR

erre ene a

0 1
  C       92.276     668.591     278.298
  O       91.640     669.270     277.230
  P       92.487     669.795     275.975
  C       94.539     671.279     275.590
  O       93.837     670.475     276.515
  C       95.990     671.495     276.035
  O       95.998     672.289     277.266
  C       96.776     670.202     276.309
  O       98.117     670.424     275.848
  C       96.735     670.097     277.827
  O       97.788     669.281     278.329
  C       96.800     671.573     278.223
  N       96.343     671.802     279.578
  C       97.315     671.780     280.592
  O       98.464     671.439     280.329
  N       96.937     672.128     281.874
  C       95.677     672.297     282.135
  N       95.358     672.699     283.403
  C       94.606     672.082     281.154
  C       95.002     671.883     279.886
  O       91.719     670.636     275.004
  O       93.016     668.450     275.264
  H       92.760     668.467     274.317
  H       97.821     669.365     279.299
  H       93.571     672.105     281.459
  H       94.288     671.738     279.088
  H       97.836     671.953     278.118
  H       95.789     669.654     278.143
  H       96.341     669.335     275.790
  H       96.491     672.084     275.272
  H       96.124     672.877     284.042
  H       94.035     672.240     275.524
  H       94.469     673.150     283.621
  H       94.514     670.811     274.594
  P       98.819     669.242     275.001
  C      100.496     667.323     275.526
  O       99.864     668.487     275.980
  O       99.815     670.085     274.060
  O       97.927     668.387     274.168
  H      100.001     669.560     273.250
  H      101.087     666.905     276.331
  H      101.151     667.546     274.679
  H       99.743     666.569     275.226
  H       91.547     668.323     279.034
  H       93.011     669.231     278.740
  H       92.750     667.707     277.926

 3  4  5  6  7  8  9  10  11  12  13  24  27  28  29  30  32 0
 6-311+G(2d,p)
 ****
 34  35 0
 6-311+G(2d,p)
 ****
 1  2  14  15  16  17  18  19  20  21  22  23  25  26 0
 3-21G
 ****
 31  33  36  37  38  39  40  41  42  43  44  45  46 0
 3-21G
 ****


