%nproc=1
%NoSave
%Mem=1900MB
#P OB98/GEN NMR

erre ene a

0 1
  C     -631.845    -598.231    -299.118
  O     -632.457    -597.582    -300.219
  H     -632.492    -599.045    -298.779
  H     -631.711    -597.536    -298.278
  H     -630.880    -598.649    -299.411
  P     -631.773    -596.247    -300.787
  C     -631.346    -597.473    -303.026
  O     -630.785    -596.742    -301.945
  C     -631.350    -596.622    -304.297
  O     -630.011    -596.200    -304.613
  C     -631.859    -597.382    -305.520
  O     -633.263    -597.515    -305.498
  C     -631.295    -596.513    -306.635
  O     -632.107    -595.357    -306.855
  C     -629.916    -596.121    -306.057
  N     -628.822    -596.966    -306.558
  C     -628.472    -596.775    -307.885
  O     -629.051    -595.931    -308.578
  N     -627.460    -597.549    -308.421
  C     -626.866    -598.440    -307.682
  N     -625.892    -599.176    -308.251
  C     -627.220    -598.660    -306.258
  C     -628.185    -597.895    -305.767
  O     -631.148    -595.328    -299.780
  O     -632.957    -595.543    -301.602
  H     -632.961    -595.682    -307.176
  H     -633.461    -594.939    -301.023
  H     -626.693    -599.401    -305.670
  H     -628.510    -598.001    -304.730
  H     -629.675    -595.075    -306.299
  H     -631.228    -597.062    -307.577
  H     -631.370    -598.367    -305.584
  H     -631.960    -595.727    -304.113
  H     -625.705    -599.005    -309.233
  H     -632.375    -597.743    -302.746
  H     -625.298    -599.823    -307.748
  H     -630.792    -598.406    -303.206
  P     -633.955    -598.922    -305.795
  C     -635.143    -598.930    -303.498
  O     -634.210    -599.586    -304.344
  O     -633.236    -599.785    -306.771
  O     -635.435    -598.522    -306.250
  H     -635.436    -598.150    -307.175
  H     -635.223    -599.463    -302.574
  H     -636.100    -598.901    -303.977
  H     -634.810    -597.931    -303.306

 6  7  8  9  10  11  12  13  14  15  16  26  30  31  32  33  35 0
 6-311+G(2d,p)
 ****
 37  38 0
 6-311+G(2d,p)
 ****
 1  2  3  4  5  17  18  19  20  21  22  23  24  25 0
 3-21G
 ****
 27  28  29  34  36  39  40  41  42  43  44  45  46 0
 3-21G
 ****


