%nproc=1
%NoSave
%Mem=1900MB
#P OB98/GEN NMR

erre ene a

0 1
  C      396.125    -248.168     -33.458
  O      395.544    -247.721     -34.672
  P      393.978    -247.368     -34.670
  C      394.016    -244.876     -35.358
  O      393.863    -245.809     -34.299
  C      392.911    -243.832     -35.328
  O      391.657    -244.458     -35.722
  C      392.689    -243.183     -33.953
  O      392.505    -241.770     -34.115
  C      391.362    -243.767     -33.495
  O      390.694    -242.918     -32.568
  C      390.651    -243.929     -34.840
  N      385.708    -244.122     -33.809
  C      386.533    -243.027     -33.976
  N      385.965    -241.813     -33.788
  N      387.795    -243.111     -34.297
  C      388.222    -244.386     -34.489
  C      387.499    -245.547     -34.362
  C      386.115    -245.442     -33.948
  O      385.359    -246.382     -33.693
  N      388.271    -246.645     -34.655
  C      389.456    -246.150     -34.949
  N      389.488    -244.785     -34.819
  O      393.454    -248.114     -33.351
  O      393.223    -247.808     -35.874
  H      391.327    -242.717     -31.854
  H      392.727    -248.722     -33.587
  H      384.749    -244.002     -33.545
  H      390.316    -246.738     -35.236
  H      390.338    -242.946     -35.227
  H      391.540    -244.733     -33.013
  H      384.991    -241.674     -33.570
  H      393.490    -243.373     -33.233
  H      386.549    -240.996     -33.925
  H      393.131    -243.065     -36.083
  H      393.982    -245.411     -36.315
  H      394.997    -244.393     -35.265
  P      393.078    -240.844     -32.931
  C      395.421    -240.435     -34.001
  O      394.667    -241.033     -32.963
  O      392.625    -241.614     -31.610
  O      392.584    -239.436     -32.977
  H      392.565    -240.996     -30.857
  H      394.814    -239.750     -34.603
  H      395.819    -241.216     -34.648
  H      396.251    -239.879     -33.559
  H      397.166    -248.363     -33.611
  H      395.637    -249.065     -33.138
  H      396.010    -247.413     -32.708

 3  4  5  6  7  8  9  10  11  12  23  26  30  31  33  0
 6-311+G(2d,p)
 ****
 35  36  37  38 0
 6-311+G(2d,p)
 ****
 1  2  13  14  15  16  17  18  19  20  21  22  24  25  27  28  29 0
 3-21G
 ****
 32  34  39  40  41  42  43  44  45  46  47  48  49 0
 3-21G
 ****


