%nproc=1
%NoSave
%Mem=1900MB
#P OB98/GEN NMR

erre ene a

0 1
  C     -752.173    -292.975    -896.040
  O     -752.013    -292.766    -897.430
  H     -753.229    -293.129    -895.820
  H     -751.825    -292.090    -895.490
  H     -751.615    -293.861    -895.710
  P     -750.524    -292.693    -898.030
  C     -748.450    -291.321    -897.370
  O     -749.864    -291.351    -897.480
  C     -747.971    -289.859    -897.290
  O     -748.454    -289.264    -896.060
  C     -746.445    -289.714    -897.230
  O     -745.860    -289.905    -898.490
  C     -746.316    -288.310    -896.670
  O     -746.480    -287.324    -897.700
  C     -747.476    -288.256    -895.670
  N     -747.064    -288.427    -894.280
  C     -746.888    -287.274    -893.530
  O     -747.097    -286.136    -893.980
  N     -746.419    -287.456    -892.260
  C     -745.973    -288.626    -891.730
  O     -745.332    -288.703    -890.700
  C     -746.235    -289.828    -892.550
  C     -746.752    -289.686    -893.770
  O     -750.414    -292.884    -899.510
  O     -749.735    -293.836    -897.230
  H     -749.635    -294.622    -897.810
  H     -745.854    -287.584    -898.420
  H     -746.255    -286.601    -891.720
  H     -745.965    -290.793    -892.130
  H     -746.909    -290.555    -894.380
  H     -748.021    -287.280    -895.750
  H     -745.347    -288.149    -896.200
  H     -746.034    -290.439    -896.510
  H     -748.384    -289.292    -898.110
  H     -748.015    -291.769    -898.280
  H     -748.128    -291.879    -896.500
  P     -744.280    -290.132    -898.640
  C     -742.096    -288.926    -897.990
  O     -743.535    -288.877    -897.990
  O     -743.801    -290.494    -900.000
  O     -743.986    -291.315    -897.590
  H     -743.428    -291.997    -898.040
  H     -741.709    -288.039    -897.533
  H     -741.741    -288.992    -898.997
  H     -741.768    -289.783    -897.440

 6  7  8  9  10  11  12  13  14  15  16  27  31  32  33  34  35 0
 6-311+G(2d,p)
 ****
 36  37 0
 6-311+G(2d,p)
 ****
 1  2  3  4  5  17  18  19  20  21  22  23  24  25 0
 3-21G
 ****
 26  28  29  30  38  39  40  41  42  43  44  45 0
 3-21G
 ****


