%nproc=1
%NoSave
%Mem=1900MB
#P OB98/GEN NMR

erre ene a

0 1
  C       -0.481       2.570     -15.110
  O       -1.428       1.531     -15.224
  H       -0.015       2.510     -14.123
  H       -0.982       3.537     -15.204
  H        0.299       2.485     -15.872
  P       -1.933       1.107     -16.681
  C       -0.798       0.075     -18.756
  O       -0.637       0.895     -17.606
  C        0.136       0.494     -19.891
  O       -0.102       1.873     -20.250
  C        1.609       0.409     -19.493
  O        2.200      -0.870     -19.624
  C        2.249       1.408     -20.452
  O        2.549       0.788     -21.713
  C        1.155       2.465     -20.621
  N        3.121       7.175     -20.431
  C        3.168       6.255     -21.459
  N        3.879       6.614     -22.550
  N        2.587       5.086     -21.407
  C        1.995       4.826     -20.218
  C        1.895       5.654     -19.122
  C        2.496       6.969     -19.211
  O        2.488       7.819     -18.326
  N        1.215       5.047     -18.093
  C        0.971       3.832     -18.539
  N        1.402       3.659     -19.833
  O       -2.561       2.460     -17.271
  O       -2.932      -0.009     -16.713
  H        2.813       1.483     -22.342
  H       -3.240       2.248     -17.936
  H        3.563       8.071     -20.537
  H        0.466       3.052     -17.980
  H        1.062       2.782     -21.667
  H        3.192       1.798     -20.059
  H        4.439       7.452     -22.589
  H        1.749       0.776     -18.471
  H        4.158       5.879     -23.202
  H       -0.080      -0.113     -20.778
  H       -1.839       0.177     -19.071
  H       -0.639      -0.976     -18.498
  P        3.468      -1.263     -18.731
  C        3.835      -1.547     -16.170
  O        3.078      -0.961     -17.206
  O        4.523      -0.116     -19.090
  O        4.019      -2.624     -18.985
  H        5.139      -0.428     -19.779
  H        3.441      -1.242     -15.223
  H        4.854      -1.231     -16.250
  H        3.785      -2.613     -16.250

 6  7  8  9  10  11  12  13  14  15  26  29  33  34 0
 6-311+G(2d,p)
 ****
 36  38  39  40  41 0
 6-311+G(2d,p)
 ****
 1  2  3  4  5  16  17  18  19  20  21  22  23  24  25 0
 3-21G
 ****
 27  28  30  31  32  35  37  42  43  44  45  46  47 0
 3-21G
 ****
 48  49 0
 3-21G
 ****


