%nproc=1
%NoSave
%Mem=1900MB
#P OB98/GEN NMR

erre ene a

0 1
  C      -92.187     422.911    -200.518
  O      -93.554     423.117    -200.901
  P      -94.652     422.245    -200.108
  C      -93.871     420.019    -201.218
  O      -94.104     420.737    -200.002
  C      -93.200     418.668    -200.961
  O      -94.042     417.867    -200.098
  C      -92.930     417.838    -202.222
  O      -91.680     417.150    -202.065
  C      -94.036     416.797    -202.192
  O      -93.696     415.631    -202.949
  C      -94.155     416.570    -200.688
  N      -96.916     412.326    -200.837
  C      -95.610     412.542    -201.234
  N      -94.957     411.488    -201.764
  N      -95.000     413.695    -201.119
  C      -95.764     414.652    -200.536
  C      -97.066     414.557    -200.098
  C      -97.741     413.291    -200.270
  O      -98.918     413.049    -199.985
  N      -97.501     415.750    -199.566
  C      -96.477     416.561    -199.701
  N      -95.400     415.949    -200.285
  O      -95.861     422.148    -201.154
  O      -95.095     422.857    -198.823
  H      -94.477     415.049    -202.942
  H      -96.680     422.489    -200.752
  H      -97.344     411.432    -200.967
  H      -96.463     417.603    -199.410
  H      -93.330     415.951    -200.314
  H      -94.955     417.221    -202.614
  H      -95.343     410.560    -201.823
  H      -92.926     418.415    -203.152
  H      -93.982     411.616    -202.015
  H      -92.265     418.854    -200.421
  H      -93.240     420.622    -201.875
  H      -94.835     419.875    -201.722
  P      -90.527     417.513    -203.115
  C      -89.951     415.162    -204.077
  O      -90.617     416.399    -204.262
  O      -89.181     417.144    -202.326
  O      -90.545     418.932    -203.572
  H      -88.434     417.690    -202.654
  H      -89.596     415.042    -203.048
  H      -89.093     415.115    -204.752
  H      -90.638     414.355    -204.315
  H      -91.553     423.539    -201.108
  H      -91.922     421.887    -200.677
  H      -92.066     423.154    -199.483

 3  4  5  6  7  8  9  10  11  12  23  26  30  31  33  0
 6-311+G(2d,p)
 ****
 35  36  37  38 0
 6-311+G(2d,p)
 ****
 1  2  13  14  15  16  17  18  19  20  21  22  24  25  27  28  29 0
 3-21G
 ****
 32  34  39  40  41  42  43  44  45  46  47  48  49 0
 3-21G
 ****


