%nproc=1
%NoSave
%Mem=1900MB
#P OB98/GEN NMR

erre ene a

0 1
  C      -32.139     305.578     397.173
  O      -30.955     305.007     397.688
  H      -32.481     304.977     396.327
  H      -31.942     306.594     396.823
  H      -32.925     305.592     397.935
  P      -30.358     305.634     399.040
  C      -31.933     304.288     400.605
  O      -30.597     304.548     400.197
  C      -32.098     302.817     401.000
  O      -32.213     302.021     399.792
  C      -30.925     302.270     401.815
  O      -31.444     301.375     402.814
  C      -30.118     301.475     400.804
  O      -29.335     300.445     401.404
  C      -31.212     300.982     399.853
  N      -30.673     300.668     398.530
  C      -30.857     299.360     398.072
  O      -31.439     298.530     398.775
  N      -30.325     298.999     396.858
  C      -29.602     299.851     396.196
  N      -29.078     299.427     395.014
  C      -29.325     301.224     396.677
  C      -29.897     301.563     397.832
  O      -31.400     306.793     399.402
  O      -28.955     306.137     398.944
  H      -28.653     300.865     401.969
  H      -30.958     307.539     399.854
  H      -28.697     301.889     396.102
  H      -29.744     302.545     398.265
  H      -31.696     300.079     400.256
  H      -29.433     302.152     400.271
  H      -30.333     303.051     402.300
  H      -33.046     302.711     401.545
  H      -29.275     298.474     394.729
  H      -32.610     304.510     399.768
  H      -28.462     299.990     394.443
  H      -32.193     304.940     401.446
  P      -30.784     301.470     404.274
  C      -32.668     300.827     405.952
  O      -31.519     300.403     405.223
  O      -31.304     302.885     404.824
  O      -29.292     301.397     404.268
  H      -30.569     303.525     404.843
  H      -33.042     300.011     406.534
  H      -33.423     301.154     405.268
  H      -32.401     301.635     406.601

 6  7  8  9  10  11  12  13  14  15  16  26  30  31  32  33  35 0
 6-311+G(2d,p)
 ****
 37  38 0
 6-311+G(2d,p)
 ****
 1  2  3  4  5  17  18  19  20  21  22  23  24  25 0
 3-21G
 ****
 27  28  29  34  36  39  40  41  42  43  44  45  46 0
 3-21G
 ****


