%nproc=1
%NoSave
%Mem=1900MB
#P OB98/GEN NMR

erre ene a

0 1
  C      294.844     584.313    -761.779
  O      294.046     585.417    -761.398
  H      295.496     584.621    -762.606
  H      294.206     583.498    -762.122
  H      295.462     583.985    -760.945
  P      293.140     585.240    -760.085
  C      290.829     585.072    -761.321
  O      291.840     584.429    -760.569
  C      289.758     584.059    -761.764
  O      289.094     583.544    -760.577
  C      288.684     584.660    -762.680
  O      288.298     583.663    -763.635
  C      287.533     584.934    -761.731
  O      286.284     584.992    -762.415
  C      287.681     583.768    -760.733
  N      287.033     584.049    -759.454
  C      285.669     583.735    -759.356
  O      285.072     583.260    -760.330
  N      285.011     584.006    -758.185
  C      285.640     584.592    -757.209
  N      284.924     584.857    -756.086
  C      287.059     584.984    -757.295
  C      287.700     584.671    -758.417
  O      292.601     586.727    -759.852
  O      293.867     584.648    -758.919
  H      285.562     584.836    -761.756
  H      292.300     587.161    -760.664
  H      287.539     585.485    -756.452
  H      288.741     584.912    -758.556
  H      287.241     582.847    -761.152
  H      287.687     585.892    -761.216
  H      289.033     585.565    -763.204
  H      290.262     583.218    -762.241
  H      283.941     584.590    -756.083
  H      291.265     585.552    -762.207
  H      285.289     585.357    -755.287
  H      290.385     585.850    -760.703
  P      289.009     583.611    -765.063
  C      287.303     585.385    -765.858
  O      288.659     584.962    -765.868
  O      288.841     582.354    -765.834
  O      290.564     583.836    -764.684
  H      291.092     583.241    -765.247
  H      287.207     586.288    -766.425
  H      286.992     585.562    -764.850
  H      286.689     584.624    -766.292

 6  7  8  9  10  11  12  13  14  15  16  26  30  31  32  33  35 0
 6-311+G(2d,p)
 ****
 37  38 0
 6-311+G(2d,p)
 ****
 1  2  3  4  5  17  18  19  20  21  22  23  24  25 0
 3-21G
 ****
 27  28  29  34  36  39  40  41  42  43  44  45  46 0
 3-21G
 ****


