%nproc=1
%NoSave
%Mem=1900MB
#P OB98/GEN NMR

erre ene a

0 1
  C       37.040     -37.574     377.157
  O       37.034     -38.134     375.857
  P       35.701     -38.792     375.258
  C       36.466     -41.242     375.548
  O       35.566     -40.219     375.984
  C       35.806     -42.617     375.644
  O       35.261     -42.828     376.962
  C       34.650     -42.822     374.677
  O       35.125     -43.070     373.370
  C       33.929     -43.999     375.327
  O       34.546     -45.246     374.969
  C       34.121     -43.707     376.828
  N       32.924     -43.141     377.443
  C       31.825     -44.003     377.549
  O       31.892     -45.152     377.105
  N       30.665     -43.519     378.108
  C       30.603     -42.291     378.501
  N       29.425     -41.870     379.034
  C       31.730     -41.341     378.382
  C       32.848     -41.828     377.848
  O       35.615     -38.819     373.770
  O       34.534     -37.936     375.949
  H       35.435     -45.234     375.380
  H       34.460     -37.034     375.548
  H       31.626     -40.319     378.716
  H       33.724     -41.204     377.723
  H       34.380     -44.627     377.370
  H       32.879     -44.064     375.020
  H       33.992     -41.941     374.692
  H       36.582     -43.376     375.471
  H       28.670     -42.544     379.071
  H       37.350     -41.219     376.187
  H       29.255     -40.922     379.342
  H       36.778     -41.029     374.521
  P       34.283     -42.575     372.103
  C       32.783     -44.649     371.899
  O       32.836     -43.267     372.181
  O       34.976     -42.691     370.784
  O       33.969     -41.038     372.442
  H       34.119     -40.500     371.643
  H       31.845     -45.054     372.300
  H       33.623     -45.173     372.362
  H       32.802     -44.802     370.821
  H       38.014     -37.188     377.374
  H       36.788     -38.329     377.872
  H       36.323     -36.782     377.207

 3  4  5  6  7  8  9  10  11  12  13  23  27  28  29  30  32 0
 6-311+G(2d,p)
 ****
 34  35 0
 6-311+G(2d,p)
 ****
 1  2  14  15  16  17  18  19  20  21  22  24  25  26 0
 3-21G
 ****
 31  33  36  37  38  39  40  41  42  43  44  45  46 0
 3-21G
 ****


