%nproc=1
%NoSave
%Mem=1900MB
#P OB98/GEN NMR

erre ene a

0 1
  C     1396.660    -413.286     387.761
  O     1396.753    -412.773     389.088
  P     1396.943    -411.191     389.373
  C     1398.507    -409.422     388.374
  O     1398.282    -410.810     388.538
  C     1399.235    -409.147     387.081
  O     1398.614    -409.960     386.046
  C     1399.199    -407.742     386.540
  O     1400.177    -406.867     387.083
  C     1399.477    -407.958     385.056
  O     1400.890    -408.151     384.861
  C     1398.731    -409.235     384.766
  N     1396.108    -407.505     380.744
  C     1397.410    -407.641     380.959
  N     1398.058    -408.104     382.066
  C     1397.146    -408.473     383.006
  C     1395.776    -408.364     382.912
  C     1395.240    -407.886     381.699
  N     1393.889    -407.747     381.486
  N     1395.179    -408.839     384.077
  C     1396.170    -409.200     384.846
  N     1397.406    -409.007     384.233
  O     1396.940    -410.844     390.814
  O     1395.765    -410.509     388.524
  H     1401.137    -408.919     385.390
  H     1395.659    -409.594     388.853
  H     1398.077    -407.357     380.147
  H     1396.105    -409.616     385.848
  H     1399.276    -409.918     384.098
  H     1399.193    -407.109     384.434
  H     1398.197    -407.270     386.633
  H     1400.287    -409.517     387.177
  H     1399.141    -409.096     389.207
  H     1393.582    -407.486     380.530
  H     1393.240    -408.184     382.151
  H     1397.572    -408.878     388.431
  P     1400.146    -405.321     386.642
  C     1400.017    -404.282     384.239
  O     1400.496    -405.305     385.084
  O     1400.944    -404.403     387.485
  O     1398.565    -404.990     386.659
  H     1398.038    -405.463     385.986
  H     1400.531    -404.372     383.262
  H     1400.288    -403.302     384.673
  H     1398.966    -404.358     384.097
  H     1396.538    -414.348     387.797
  H     1397.554    -413.048     387.223
  H     1395.818    -412.847     387.267

 3  4  5  6  7  8  9  10  11  12  22  25  29  30  31  32 0
 6-311+G(2d,p)
 ****
 33  36  37 0
 6-311+G(2d,p)
 ****
 1  2  13  14  15  16  17  18  19  20  21  23  24  26 0
 3-21G
 ****
 27  28  34  35  38  39  40  41  42  43  44  45  46  47  48 0
 3-21G
 ****


