%nproc=1
%NoSave
%Mem=1900MB
#P OB98/GEN NMR

erre ene a

0 1
  C      234.671     -40.914     198.224
  O      233.426     -40.566     198.836
  P      233.404     -40.506     200.438
  C      234.869     -39.248     202.175
  O      234.239     -39.218     200.902
  C      235.398     -37.859     202.532
  O      236.340     -37.378     201.549
  C      234.310     -36.795     202.600
  O      233.545     -36.923     203.786
  C      235.148     -35.524     202.519
  O      235.728     -35.222     203.798
  C      236.254     -35.933     201.532
  N      237.838     -32.787     197.820
  C      238.295     -33.009     199.072
  N      237.815     -33.861     200.003
  C      236.759     -34.540     199.524
  C      236.184     -34.425     198.268
  C      236.766     -33.495     197.392
  N      236.292     -33.259     196.122
  N      235.111     -35.284     198.144
  C      235.026     -35.888     199.313
  N      236.008     -35.481     200.174
  O      234.331     -41.736     200.868
  O      232.033     -40.616     201.023
  H      236.057     -36.063     204.175
  H      233.784     -42.451     201.245
  H      239.158     -32.419     199.370
  H      234.277     -36.624     199.578
  H      237.236     -35.544     201.827
  H      234.571     -34.650     202.206
  H      233.654     -36.869     201.724
  H      235.911     -37.929     203.500
  H      235.690     -39.968     202.175
  H      236.718     -32.519     195.587
  H      235.443     -33.716     195.825
  H      234.144     -39.598     202.918
  P      232.084     -37.572     203.667
  C      231.175     -39.935     204.104
  O      232.284     -39.064     204.232
  O      231.964     -37.808     202.092
  O      230.990     -36.782     204.297
  H      232.773     -38.205     201.723
  H      231.456     -40.917     204.493
  H      230.893     -40.036     203.053
  H      230.331     -39.553     204.684
  H      234.556     -40.920     197.160
  H      234.972     -41.886     198.556
  H      235.416     -40.197     198.498

 3  4  5  6  7  8  9  10  11  12  22  25  29  30  31  32 0
 6-311+G(2d,p)
 ****
 33  36  37 0
 6-311+G(2d,p)
 ****
 1  2  13  14  15  16  17  18  19  20  21  23  24  26 0
 3-21G
 ****
 27  28  34  35  38  39  40  41  42  43  44  45  46  47  48 0
 3-21G
 ****


