%nproc=1
%NoSave
%Mem=1900MB
#P OB98/GEN NMR

erre ene a

0 1
  C     -896.630    -895.440    -889.620
  O     -895.370    -894.900    -889.980
  H     -896.530    -896.510    -889.410
  H     -896.990    -894.930    -888.730
  H     -897.340    -895.290    -890.440
  P     -894.640    -895.540    -891.260
  C     -894.540    -893.600    -892.990
  O     -895.240    -894.750    -892.520
  C     -895.250    -893.060    -894.230
  O     -895.160    -894.010    -895.310
  C     -896.740    -892.800    -894.020
  O     -897.000    -891.560    -893.400
  C     -897.220    -892.820    -895.460
  O     -896.890    -891.570    -896.110
  C     -896.400    -893.970    -896.060
  N     -897.630    -898.220    -898.640
  C     -896.910    -897.130    -898.990
  N     -896.600    -896.050    -898.240
  C     -897.120    -896.160    -897.010
  C     -897.890    -897.210    -896.520
  C     -898.140    -898.280    -897.390
  N     -898.910    -899.370    -897.050
  N     -898.260    -896.970    -895.210
  C     -897.730    -895.790    -894.920
  N     -897.060    -895.260    -895.990
  O     -895.310    -896.990    -891.390
  O     -893.150    -895.590    -891.210
  H     -897.490    -890.890    -895.740
  H     -894.780    -897.550    -891.990
  H     -896.510    -897.130    -900.000
  H     -897.800    -895.290    -893.960
  H     -896.140    -893.790    -897.120
  H     -898.320    -892.940    -895.550
  H     -897.220    -893.640    -893.480
  H     -894.740    -892.140    -894.550
  H     -893.520    -893.880    -893.240
  H     -899.160    -900.000    -897.790
  H     -899.410    -899.370    -896.180
  H     -894.530    -892.840    -892.200
  P     -898.270    -891.490    -892.410
  C     -897.020    -890.600    -890.290
  O     -897.690    -891.710    -890.920
  O     -899.030    -892.850    -892.710
  O     -899.140    -890.290    -892.600
  H     -900.000    -892.740    -892.590
  H     -896.691    -890.889    -889.314
  H     -897.696    -889.775    -890.209
  H     -896.175    -890.312    -890.880

 6  7  8  9  10  11  12  13  14  15  25  28  32  33  34  35 0
 6-311+G(2d,p)
 ****
 36  39  40 0
 6-311+G(2d,p)
 ****
 1  2  3  4  5  16  17  18  19  20  21  22  23  24 0
 3-21G
 ****
 26  27  29  30  31  37  38  41  42  43  44  45  46  47 0
 3-21G
 ****
 48 0
 3-21G
 ****


