%nproc=1
%NoSave
%Mem=1900MB
#P OB98/GEN NMR

erre ene a

0 1
  C       78.147    -347.266    -114.779
  O       78.119    -345.912    -114.326
  P       79.313    -344.920    -114.747
  C       79.346    -343.116    -112.922
  O       78.961    -343.438    -114.250
  C       78.630    -341.863    -112.388
  O       79.161    -340.661    -113.026
  C       77.113    -341.853    -112.613
  O       76.528    -341.207    -111.471
  C       76.959    -341.001    -113.857
  O       75.637    -340.502    -114.018
  C       78.044    -339.943    -113.589
  N       78.420    -339.224    -114.801
  C       77.511    -338.283    -115.294
  O       76.397    -338.167    -114.777
  N       77.872    -337.531    -116.381
  C       78.987    -337.797    -116.999
  N       79.322    -337.000    -118.068
  C       79.884    -338.899    -116.618
  C       79.559    -339.544    -115.502
  O       79.765    -345.026    -116.173
  O       80.499    -345.348    -113.743
  H       75.348    -340.077    -113.179
  H       81.358    -345.257    -114.212
  H       80.754    -339.136    -117.217
  H       80.153    -340.366    -115.130
  H       77.702    -339.219    -112.841
  H       77.211    -341.599    -114.748
  H       76.682    -342.857    -112.710
  H       78.842    -341.773    -111.314
  H       78.689    -336.267    -118.338
  H       80.426    -342.947    -112.893
  H       80.184    -337.122    -118.570
  H       79.154    -343.983    -112.267
  P       75.846    -342.103    -110.329
  C       73.382    -341.451    -110.829
  O       74.465    -341.416    -109.924
  O       76.777    -341.776    -109.053
  O       75.836    -343.581    -110.572
  H       76.724    -342.519    -108.428
  H       72.455    -341.194    -110.281
  H       73.261    -342.444    -111.263
  H       73.534    -340.714    -111.624
  H       77.285    -347.783    -114.411
  H       79.032    -347.745    -114.416
  H       78.144    -347.284    -115.849

 3  4  5  6  7  8  9  10  11  12  13  23  27  28  29  30  32 0
 6-311+G(2d,p)
 ****
 34  35 0
 6-311+G(2d,p)
 ****
 1  2  14  15  16  17  18  19  20  21  22  24  25  26 0
 3-21G
 ****
 31  33  36  37  38  39  40  41  42  43  44  45  46 0
 3-21G
 ****


