%nproc=1
%NoSave
%Mem=1900MB
#P OB98/GEN NMR

erre ene a

0 1
  C      303.275    -236.998     161.289
  O      304.632    -236.597     161.054
  P      305.313    -235.523     162.038
  C      307.630    -236.548     161.392
  O      306.863    -235.384     161.656
  C      309.068    -236.166     161.029
  O      309.105    -235.491     159.747
  C      309.728    -235.198     162.001
  O      310.148    -235.849     163.190
  C      310.880    -234.666     161.168
  O      312.000    -235.567     161.195
  C      310.254    -234.621     159.756
  N      309.902    -233.267     159.339
  C      310.894    -232.536     158.691
  O      312.037    -232.959     158.515
  N      310.534    -231.282     158.276
  C      309.332    -230.673     158.506
  O      309.078    -229.535     158.123
  C      308.353    -231.460     159.264
  C      308.678    -232.695     159.650
  O      305.384    -236.335     163.417
  O      304.562    -234.241     162.214
  H      312.558    -235.341     160.423
  H      305.352    -235.710     164.170
  H      311.226    -230.746     157.775
  H      307.398    -231.006     159.492
  H      307.970    -233.297     160.213
  H      310.950    -235.038     159.021
  H      311.246    -233.697     161.522
  H      309.041    -234.376     162.235
  H      309.660    -237.094     160.943
  H      307.184    -237.093     160.557
  H      307.619    -237.194     162.280
  P      309.479    -235.347     164.564
  C      310.177    -237.757     165.313
  O      309.941    -236.410     165.672
  O      307.939    -235.674     164.291
  O      309.766    -233.909     164.865
  H      307.821    -236.473     163.745
  H      310.575    -237.837     164.300
  H      309.236    -238.314     165.391
  H      310.902    -238.182     166.017
  H      302.981    -237.712     160.548
  H      302.635    -236.142     161.233
  H      303.197    -237.439     162.261

 3  4  5  6  7  8  9  10  11  12  13  23  28  29  30  31  32 0
 6-311+G(2d,p)
 ****
 33  34 0
 6-311+G(2d,p)
 ****
 1  2  14  15  16  17  18  19  20  21  22  24  25  26 0
 3-21G
 ****
 27  35  36  37  38  39  40  41  42  43  44  45 0
 3-21G
 ****


