%nproc=1
%NoSave
%Mem=1900MB
#P OB98/GEN NMR

erre ene a

0 1
  C     -318.395     107.237     108.007
  O     -318.039     108.586     108.235
  H     -317.599     106.759     107.429
  H     -319.323     107.193     107.430
  H     -318.519     106.695     108.948
  P     -318.837     109.416     109.346
  C     -317.345     109.560     111.446
  O     -317.746     110.187     110.238
  C     -316.679     110.570     112.396
  O     -315.436     111.032     111.812
  C     -317.572     111.800     112.582
  O     -317.377     112.419     113.852
  C     -317.083     112.737     111.490
  O     -317.397     114.103     111.744
  C     -315.588     112.426     111.484
  N     -311.323     113.922     109.131
  C     -311.605     113.889     110.478
  N     -310.636     114.335     111.309
  N     -312.749     113.472     110.968
  C     -313.648     113.129     110.017
  C     -313.494     113.144     108.649
  C     -312.214     113.569     108.122
  O     -311.911     113.636     106.931
  N     -314.641     112.743     108.008
  C     -315.491     112.494     108.983
  N     -314.932     112.700     110.221
  O     -319.374     108.288     110.352
  O     -319.957     110.273     108.833
  H     -316.695     114.465     112.318
  H     -320.166     108.602     110.824
  H     -310.424     114.236     108.804
  H     -316.514     112.163     108.848
  H     -315.068     113.016     112.257
  H     -317.580     112.462     110.550
  H     -309.822     114.823     110.977
  H     -318.628     111.560     112.462
  H     -310.929     114.590     112.256
  H     -316.424     110.083     113.344
  H     -316.636     108.769     111.183
  H     -318.201     109.086     111.934
  P     -318.535     112.248     114.944
  C     -317.694     110.565     116.780
  O     -317.836     111.909     116.348
  O     -319.251     110.885     114.524
  O     -319.489     113.396     114.999
  H     -320.113     111.069     114.103
  H     -317.207     110.546     117.733
  H     -317.107     110.022     116.069
  H     -318.660     110.113     116.864

 6  7  8  9  10  11  12  13  14  15  26  29  33  34 0
 6-311+G(2d,p)
 ****
 36  38  39  40  41 0
 6-311+G(2d,p)
 ****
 1  2  3  4  5  16  17  18  19  20  21  22  23  24  25 0
 3-21G
 ****
 27  28  30  31  32  35  37  42  43  44  45  46  47 0
 3-21G
 ****
 48  49 0
 3-21G
 ****


