%nproc=1
%NoSave
%Mem=1900MB
#P OB98/GEN NMR

erre ene a

0 1
  C      146.793      58.239      63.976
  O      148.167      58.135      63.641
  P      149.111      59.398      63.916
  C      150.103      59.863      61.563
  O      150.325      59.347      62.867
  C      151.122      59.296      60.573
  O      152.445      59.802      60.893
  C      151.204      57.767      60.586
  O      151.496      57.294      59.263
  C      152.421      57.487      61.444
  O      152.979      56.204      61.159
  C      153.316      58.666      61.065
  N      158.240      58.336      62.153
  C      157.601      58.212      60.936
  N      158.374      57.867      59.883
  N      156.321      58.413      60.765
  C      155.673      58.746      61.908
  C      156.200      58.914      63.170
  C      157.616      58.677      63.346
  O      158.236      58.743      64.401
  N      155.236      59.289      64.069
  C      154.119      59.305      63.368
  N      154.328      58.947      62.061
  O      149.805      59.028      65.311
  O      148.396      60.704      64.006
  H      152.396      55.543      61.580
  H      149.411      59.558      66.028
  H      159.228      58.160      62.236
  H      153.139      59.541      63.760
  H      153.825      58.493      60.109
  H      152.147      57.513      62.505
  H      159.352      57.633      59.962
  H      150.304      57.267      60.961
  H      157.923      57.726      58.990
  H      150.875      59.661      59.569
  H      150.199      60.950      61.589
  H      149.086      59.618      61.239
  P      150.319      56.481      58.532
  C      151.758      54.313      58.538
  O      151.032      55.261      57.782
  O      149.882      57.457      57.343
  O      149.178      56.122      59.424
  H      148.956      57.284      57.087
  H      151.278      53.335      58.435
  H      151.804      54.575      59.598
  H      152.777      54.251      58.147
  H      146.297      57.322      63.736
  H      146.350      59.040      63.422
  H      146.695      58.434      65.024

 3  4  5  6  7  8  9  10  11  12  23  26  30  31 0
 6-311+G(2d,p)
 ****
 33  35  36  37  38 0
 6-311+G(2d,p)
 ****
 1  2  13  14  15  16  17  18  19  20  21  22  24  25 0
 3-21G
 ****
 27  28  29  32  34  39  40  41  42  43  44  45  46  47  48  49 0
 3-21G
 ****


