%nproc=1
%NoSave
%Mem=1900MB
#P OB98/GEN NMR

erre ene a

0 1
  C      510.201    -399.378     336.381
  O      509.741    -399.214     335.053
  H      509.522    -400.027     336.937
  H      511.192    -399.841     336.358
  H      510.279    -398.405     336.873
  P      508.282    -398.583     334.863
  C      509.256    -396.371     333.922
  O      508.450    -396.985     334.921
  C      508.370    -395.831     332.800
  O      507.618    -394.704     333.317
  C      509.135    -395.363     331.551
  O      508.679    -396.077     330.396
  C      508.747    -393.899     331.393
  O      508.523    -393.521     330.037
  C      507.478    -393.780     332.228
  N      505.958    -389.086     330.942
  C      505.683    -390.294     330.400
  N      506.030    -391.517     330.854
  C      506.718    -391.418     332.004
  C      507.053    -390.259     332.692
  C      506.661    -389.048     332.098
  N      506.988    -387.814     332.624
  N      507.773    -390.562     333.835
  C      507.908    -391.869     333.818
  N      507.299    -392.430     332.723
  O      507.549    -398.932     336.244
  O      507.519    -399.093     333.689
  H      509.337    -393.738     329.547
  H      506.665    -399.309     336.063
  H      505.112    -390.279     329.479
  H      508.463    -392.458     334.540
  H      506.578    -394.061     331.657
  H      509.548    -393.277     331.805
  H      510.220    -395.472     331.653
  H      507.644    -396.610     332.533
  H      509.946    -397.109     333.504
  H      506.769    -386.998     332.072
  H      507.607    -387.779     333.418
  H      509.840    -395.568     334.377
  P      509.815    -396.731     329.459
  C      510.435    -398.720     331.017
  O      510.847    -397.496     330.418
  O      510.651    -395.452     328.968
  O      509.276    -397.522     328.318
  H      511.068    -395.641     328.104
  H      511.228    -399.105     331.624
  H      510.195    -399.429     330.252
  H      509.572    -398.547     331.626

 6  7  8  9  10  11  12  13  14  15  25  28  32  33  34  35 0
 6-311+G(2d,p)
 ****
 36  39  40 0
 6-311+G(2d,p)
 ****
 1  2  3  4  5  16  17  18  19  20  21  22  23  24 0
 3-21G
 ****
 26  27  29  30  31  37  38  41  42  43  44  45  46  47  48 0
 3-21G
 ****


