%nproc=1
%NoSave
%Mem=1900MB
#P OB98/GEN NMR

erre ene a

0 1
  C      427.048     156.542     -74.155
  O      427.444     156.178     -75.481
  P      428.755     156.908     -76.051
  C      430.004     154.747     -76.752
  O      429.398     155.959     -77.179
  C      430.520     153.930     -77.943
  O      429.415     153.354     -78.701
  C      431.362     154.748     -78.932
  O      432.374     153.870     -79.445
  C      430.372     155.060     -80.037
  O      431.031     155.436     -81.245
  C      429.606     153.740     -80.082
  N      427.039     152.238     -84.163
  C      428.359     152.038     -83.820
  N      429.096     151.286     -84.667
  N      428.914     152.533     -82.744
  C      428.048     153.233     -81.972
  C      426.713     153.488     -82.192
  C      426.123     152.960     -83.408
  O      424.956     153.103     -83.753
  N      426.159     154.209     -81.160
  C      427.185     154.445     -80.358
  N      428.334     153.829     -80.773
  O      429.788     156.804     -74.829
  O      428.525     158.323     -76.465
  H      431.615     154.692     -81.504
  H      429.822     157.650     -74.347
  H      426.668     151.849     -85.011
  H      427.142     155.030     -79.453
  H      430.175     152.946     -80.588
  H      429.712     155.886     -79.736
  H      428.722     150.834     -85.488
  H      431.819     155.645     -78.505
  H      430.059     151.091     -84.419
  H      431.116     153.097     -77.553
  H      429.282     154.145     -76.194
  H      430.811     154.979     -76.051
  P      433.884     154.122     -78.986
  C      434.617     151.671     -79.389
  O      434.798     153.034     -79.724
  O      433.887     153.637     -77.458
  O      434.341     155.540     -79.096
  H      434.447     154.233     -76.925
  H      434.922     151.056     -80.238
  H      433.574     151.449     -79.148
  H      435.246     151.423     -78.527
  H      426.169     155.996     -73.883
  H      426.842     157.591     -74.120
  H      427.837     156.310     -73.471

 3  4  5  6  7  8  9  10  11  12  23  26  30  31 0
 6-311+G(2d,p)
 ****
 33  35  36  37  38 0
 6-311+G(2d,p)
 ****
 1  2  13  14  15  16  17  18  19  20  21  22  24  25 0
 3-21G
 ****
 27  28  29  32  34  39  40  41  42  43  44  45  46  47  48  49 0
 3-21G
 ****


