%nproc=1
%NoSave
%Mem=1900MB
#P OB98/GEN NMR

erre ene a

0 1
  C      -34.820    -514.158     -59.364
  O      -35.238    -515.330     -60.031
  H      -34.534    -514.423     -58.343
  H      -35.640    -513.435     -59.320
  H      -33.954    -513.712     -59.865
  P      -35.568    -515.250     -61.599
  C      -35.448    -516.862     -63.611
  O      -35.122    -516.649     -62.243
  C      -34.304    -517.595     -64.307
  O      -33.089    -516.815     -64.226
  C      -33.970    -518.945     -63.687
  O      -34.918    -519.927     -64.058
  C      -32.568    -519.171     -64.235
  O      -32.617    -519.673     -65.581
  C      -31.982    -517.743     -64.197
  N      -31.128    -517.510     -63.033
  C      -29.773    -517.788     -63.193
  O      -29.295    -518.242     -64.234
  N      -28.984    -517.555     -62.100
  C      -29.421    -517.193     -60.859
  O      -28.679    -517.085     -59.884
  C      -30.862    -516.936     -60.741
  C      -31.637    -517.101     -61.817
  O      -35.058    -514.039     -62.305
  O      -37.168    -515.326     -61.651
  H      -33.282    -520.390     -65.581
  H      -37.529    -514.438     -61.841
  H      -28.003    -517.766     -62.191
  H      -31.246    -516.631     -59.777
  H      -32.704    -516.924     -61.747
  H      -31.391    -517.551     -65.100
  H      -32.008    -519.893     -63.643
  H      -33.914    -518.855     -62.597
  H      -34.562    -517.704     -65.369
  H      -35.607    -515.891     -64.093
  H      -36.375    -517.443     -63.669
  P      -34.785    -521.419     -63.494
  C      -35.925    -523.614     -64.195
  O      -36.101    -522.225     -63.931
  O      -34.434    -521.525     -62.045
  O      -33.643    -522.069     -64.403
  H      -32.896    -522.344     -63.837
  H      -36.863    -524.045     -64.476
  H      -35.558    -524.100     -63.316
  H      -35.222    -523.739     -64.992

 6  7  8  9  10  11  12  13  14  15  16  26  31  32  33  34  35 0
 6-311+G(2d,p)
 ****
 36  37 0
 6-311+G(2d,p)
 ****
 1  2  3  4  5  17  18  19  20  21  22  23  24  25 0
 3-21G
 ****
 27  28  29  30  38  39  40  41  42  43  44  45 0
 3-21G
 ****


