%nproc=1
%NoSave
%Mem=1900MB
#P OB98/GEN NMR

erre ene a

0 1
  C     -338.120    -406.144     420.247
  O     -339.400    -405.785     420.729
  H     -337.727    -406.952     420.869
  H     -337.435    -405.295     420.305
  H     -338.185    -406.499     419.214
  P     -340.189    -404.608     419.978
  C     -341.293    -403.531     422.048
  O     -341.485    -404.308     420.872
  C     -342.638    -403.034     422.571
  O     -343.269    -402.176     421.601
  C     -343.634    -404.153     422.877
  O     -343.363    -404.728     424.146
  C     -344.940    -403.373     422.839
  O     -345.089    -402.613     424.054
  C     -344.701    -402.431     421.648
  N     -347.081    -401.405     417.291
  C     -346.903    -400.617     418.414
  N     -347.482    -399.395     418.381
  N     -346.239    -400.998     419.472
  C     -345.781    -402.268     419.387
  C     -345.908    -403.150     418.337
  C     -346.597    -402.696     417.149
  O     -346.759    -403.358     416.125
  N     -345.365    -404.375     418.645
  C     -344.880    -404.218     419.858
  N     -345.119    -402.961     420.359
  O     -340.494    -404.836     418.527
  O     -339.272    -403.319     420.206
  H     -344.537    -401.816     423.953
  H     -338.648    -403.196     419.469
  H     -347.621    -401.058     416.513
  H     -344.346    -404.976     420.414
  H     -345.200    -401.463     421.776
  H     -345.816    -404.012     422.743
  H     -348.225    -399.172     417.730
  H     -343.657    -404.906     422.083
  H     -347.407    -398.823     419.209
  H     -342.447    -402.424     423.464
  H     -340.648    -402.687     421.785
  H     -340.796    -404.127     422.819
  P     -342.972    -406.277     424.285
  C     -344.943    -406.800     425.870
  O     -343.535    -406.717     425.720
  O     -341.531    -406.581     424.059
  O     -343.959    -407.032     423.281
  H     -343.604    -407.104     422.360
  H     -345.178    -407.102     426.869
  H     -345.334    -407.518     425.179
  H     -345.380    -405.843     425.675

 6  7  8  9  10  11  12  13  14  15  26  29  33  34 0
 6-311+G(2d,p)
 ****
 36  38  39  40  41 0
 6-311+G(2d,p)
 ****
 1  2  3  4  5  16  17  18  19  20  21  22  23  24  25 0
 3-21G
 ****
 27  28  30  31  32  35  37  42  43  44  45  46  47 0
 3-21G
 ****
 48  49 0
 3-21G
 ****


