%nproc=1
%NoSave
%Mem=1900MB
#P OB98/GEN NMR

erre ene a

0 1
  C       64.977    -143.902     -92.417
  O       64.439    -142.618     -92.690
  P       63.379    -141.946     -91.691
  C       64.111    -139.666     -92.629
  O       63.010    -140.512     -92.312
  C       63.679    -138.556     -93.587
  O       63.324    -139.149     -94.859
  C       62.471    -137.767     -93.095
  O       62.624    -136.400     -93.484
  C       61.300    -138.353     -93.866
  O       60.233    -137.398     -93.997
  C       61.976    -138.755     -95.181
  N       57.928    -140.215     -97.984
  C       58.311    -139.005     -97.525
  N       59.384    -138.694     -96.766
  C       60.130    -139.786     -96.530
  C       59.870    -141.086     -96.937
  C       58.705    -141.288     -97.697
  N       58.322    -142.523     -98.176
  N       60.847    -141.948     -96.477
  C       61.692    -141.177     -95.826
  N       61.308    -139.863     -95.838
  O       63.794    -141.914     -90.260
  O       62.037    -142.787     -91.902
  H       59.682    -137.684     -94.755
  H       61.575    -142.909     -91.051
  H       57.667    -138.174     -97.801
  H       62.583    -141.520     -95.322
  H       62.026    -137.913     -95.884
  H       60.908    -139.225     -93.332
  H       62.330    -137.835     -92.011
  H       64.535    -137.891     -93.760
  H       64.885    -140.275     -93.108
  H       57.541    -142.552     -98.813
  H       58.984    -143.285     -98.112
  H       64.523    -139.245     -91.707
  P       62.063    -135.305     -92.441
  C       63.667    -133.292     -92.829
  O       62.421    -133.890     -93.104
  O       62.555    -135.554     -91.052
  O       60.481    -135.473     -92.634
  H       60.263    -135.835     -93.522
  H       63.708    -132.320     -93.336
  H       64.480    -133.916     -93.210
  H       63.789    -133.133     -91.754
  H       65.660    -144.175     -93.194
  H       64.184    -144.619     -92.372
  H       65.492    -143.881     -91.480

 3  4  5  6  7  8  9  10  11  12  22  25  29  30  31  32 0
 6-311+G(2d,p)
 ****
 33  36  37 0
 6-311+G(2d,p)
 ****
 1  2  13  14  15  16  17  18  19  20  21  23  24  26 0
 3-21G
 ****
 27  28  34  35  38  39  40  41  42  43  44  45  46  47  48 0
 3-21G
 ****


