%nproc=1
%NoSave
%Mem=1900MB
#P OB98/GEN NMR

erre ene a

0 1
  C     -453.009    -543.706       1.011
  O     -454.107    -544.606       1.008
  P     -454.086    -545.835       2.035
  C     -455.797    -544.575       3.531
  O     -454.574    -545.299       3.465
  C     -456.959    -545.503       3.926
  O     -456.688    -546.075       5.237
  C     -458.320    -544.789       4.010
  O     -459.348    -545.694       3.611
  C     -458.483    -544.522       5.489
  O     -459.856    -544.367       5.842
  C     -457.821    -545.768       6.088
  N     -459.373    -544.719      10.785
  C     -460.111    -545.117       9.684
  N     -461.452    -545.150       9.838
  N     -459.579    -545.444       8.539
  C     -458.229    -545.361       8.525
  C     -457.382    -544.999       9.556
  C     -457.977    -544.618      10.817
  O     -457.388    -544.235      11.824
  N     -456.072    -545.055       9.179
  C     -456.103    -545.424       7.907
  N     -457.389    -545.582       7.454
  O     -452.517    -546.098       2.247
  O     -454.774    -547.067       1.548
  H     -460.317    -545.183       5.579
  H     -452.245    -546.903       1.761
  H     -459.835    -544.462      11.635
  H     -455.245    -545.558       7.264
  H     -458.495    -546.637       6.048
  H     -457.947    -543.611       5.775
  H     -461.930    -544.837      10.673
  H     -458.375    -543.864       3.411
  H     -462.020    -545.396       9.038
  H     -456.992    -546.330       3.218
  H     -456.007    -544.146       2.547
  H     -455.709    -543.747       4.252
  P     -460.550    -545.057       2.761
  C     -459.597    -545.934       0.502
  O     -459.977    -544.819       1.283
  O     -460.676    -543.575       3.361
  O     -461.829    -545.819       2.844
  H     -461.584    -543.233       3.232
  H     -460.237    -545.972      -0.379
  H     -459.699    -546.878       1.053
  H     -458.555    -545.817       0.182
  H     -453.169    -542.945       0.276
  H     -452.110    -544.239       0.782
  H     -452.920    -543.255       1.977

 3  4  5  6  7  8  9  10  11  12  23  26  30  31 0
 6-311+G(2d,p)
 ****
 33  35  36  37  38 0
 6-311+G(2d,p)
 ****
 1  2  13  14  15  16  17  18  19  20  21  22  24  25 0
 3-21G
 ****
 27  28  29  32  34  39  40  41  42  43  44  45  46  47  48  49 0
 3-21G
 ****


