%nproc=1
%NoSave
%Mem=1900MB
#P OB98/GEN NMR

erre ene a

0 1
  C     -110.621       3.380     -55.216
  O     -109.581       2.395     -55.257
  P     -108.070       2.900     -55.435
  C     -107.761       1.465     -57.584
  O     -107.265       1.816     -56.300
  C     -106.743       0.602     -58.334
  O     -105.552       1.345     -58.663
  C     -106.261      -0.603     -57.542
  O     -107.180      -1.683     -57.624
  C     -104.977      -0.947     -58.280
  O     -105.285      -1.682     -59.481
  C     -104.425       0.439     -58.634
  N      -99.598       0.021     -56.975
  C     -100.287      -0.652     -57.923
  N     -101.575      -0.496     -58.295
  C     -102.158       0.484     -57.587
  C     -101.584       1.255     -56.590
  C     -100.238       0.994     -56.286
  N      -99.541       1.684     -55.321
  N     -102.496       2.156     -56.081
  C     -103.598       1.942     -56.771
  N     -103.445       0.936     -57.686
  O     -107.457       2.725     -53.966
  O     -107.956       4.310     -55.911
  H     -104.436      -1.964     -59.868
  H     -106.809       3.434     -53.792
  H      -99.730      -1.419     -58.454
  H     -104.523       2.489     -56.646
  H     -103.958       0.460     -59.626
  H     -104.306      -1.575     -57.688
  H     -106.037      -0.327     -56.504
  H     -107.209       0.266     -59.270
  H     -107.985       2.368     -58.159
  H      -98.571       1.460     -55.178
  H     -100.008       2.426     -54.820
  H     -108.711       0.935     -57.464
  P     -108.406      -1.682     -56.590
  C     -107.219      -3.143     -54.801
  O     -108.263      -3.036     -55.747
  O     -109.672      -1.942     -57.535
  O     -108.546      -0.426     -55.800
  H     -110.464      -1.514     -57.158
  H     -107.444      -3.969     -54.122
  H     -107.120      -2.225     -54.216
  H     -106.277      -3.354     -55.314
  H     -111.567       2.895     -55.094
  H     -110.621       3.937     -56.130
  H     -110.452       4.043     -54.394

 3  4  5  6  7  8  9  10  11  12  22  25  29  30  31  32 0
 6-311+G(2d,p)
 ****
 33  36  37 0
 6-311+G(2d,p)
 ****
 1  2  13  14  15  16  17  18  19  20  21  23  24  26 0
 3-21G
 ****
 27  28  34  35  38  39  40  41  42  43  44  45  46  47  48 0
 3-21G
 ****


