%nproc=1
%NoSave
%Mem=1900MB
#P OB98/GEN NMR

erre ene a

0 1
  C      885.452     949.119    -894.890
  O      886.416     950.030    -895.360
  H      885.946     948.410    -894.220
  H      885.014     948.569    -895.730
  H      884.659     949.627    -894.330
  P      885.908     951.386    -896.080
  C      885.962     952.519    -893.740
  O      885.201     952.267    -894.930
  C      885.549     953.855    -893.100
  O      885.883     954.949    -894.020
  C      884.039     953.908    -892.880
  O      883.668     954.747    -891.780
  C      883.524     954.554    -894.180
  O      882.240     955.159    -894.030
  C      884.632     955.539    -894.490
  N      882.939     958.386    -898.340
  C      882.425     958.272    -897.050
  N      881.324     958.975    -896.770
  N      882.970     957.501    -896.130
  C      884.042     956.806    -896.600
  C      884.634     956.807    -897.830
  C      884.059     957.681    -898.830
  O      884.436     957.826    -900.000
  N      885.675     955.932    -897.930
  C      885.742     955.373    -896.740
  N      884.779     955.878    -895.870
  O      884.670     950.913    -896.950
  O      886.942     952.104    -896.890
  H      881.600     954.437    -893.890
  H      884.545     951.524    -897.700
  H      882.508     959.005    -899.010
  H      886.464     954.611    -896.420
  H      884.502     956.469    -893.930
  H      883.422     953.772    -894.930
  H      880.786     959.439    -897.490
  H      883.607     952.904    -892.730
  H      880.777     958.692    -895.960
  H      886.128     954.021    -892.180
  H      887.011     952.545    -894.030
  H      885.825     951.700    -893.030
  P      882.655     954.146    -890.700
  C      884.324     953.736    -888.710
  O      883.510     953.186    -889.720
  O      881.749     953.111    -891.560
  O      881.834     955.172    -890.000
  H      880.871     953.489    -891.710
  H      884.806     952.947    -888.171
  H      883.720     954.310    -888.038
  H      885.064     954.369    -889.154

 6  7  8  9  10  11  12  13  14  15  26  29  33  34 0
 6-311+G(2d,p)
 ****
 36  38  39  40  41 0
 6-311+G(2d,p)
 ****
 1  2  3  4  5  16  17  18  19  20  21  22  23  24  25 0
 3-21G
 ****
 27  28  30  31  32  35  37  42  43  44  45  46  47 0
 3-21G
 ****
 48  49 0
 3-21G
 ****


