%nproc=1
%NoSave
%Mem=1900MB
#P OB98/GEN NMR

erre ene a

0 1
  C      277.581    -927.029     309.123
  O      277.075    -927.071     310.447
  H      278.644    -926.765     309.161
  H      277.063    -926.278     308.526
  H      277.483    -928.011     308.647
  P      275.497    -927.290     310.646
  C      273.387    -925.874     310.153
  O      274.803    -925.988     310.026
  C      273.027    -924.585     310.889
  O      273.585    -923.441     310.204
  C      271.535    -924.338     310.961
  O      270.923    -925.165     311.930
  C      271.500    -922.850     311.259
  O      271.742    -922.590     312.648
  C      272.674    -922.333     310.392
  N      272.241    -921.800     309.109
  C      271.586    -920.555     309.151
  O      271.414    -919.978     310.233
  N      271.129    -920.013     307.975
  C      271.319    -920.644     306.856
  N      270.824    -920.062     305.726
  C      272.005    -921.945     306.764
  C      272.431    -922.464     307.916
  O      275.032    -927.641     312.029
  O      275.138    -928.430     309.579
  H      271.006    -923.023     313.131
  H      275.234    -929.310     309.980
  H      272.138    -922.431     305.814
  H      272.953    -923.415     307.935
  H      273.236    -921.550     310.925
  H      270.539    -922.407     311.002
  H      271.077    -924.491     309.975
  H      273.472    -924.625     311.893
  H      270.353    -919.166     305.835
  H      273.043    -926.743     310.719
  H      270.992    -920.401     304.790
  H      272.916    -925.887     309.165
  P      269.375    -925.577     311.802
  C      267.169    -924.419     312.463
  O      268.559    -924.247     312.139
  O      268.970    -926.791     312.567
  O      269.172    -925.737     310.214
  H      269.591    -926.559     309.874
  H      266.730    -923.465     312.669
  H      267.079    -925.047     313.325
  H      266.664    -924.873     311.636

 6  7  8  9  10  11  12  13  14  15  16  26  30  31  32  33  35 0
 6-311+G(2d,p)
 ****
 37  38 0
 6-311+G(2d,p)
 ****
 1  2  3  4  5  17  18  19  20  21  22  23  24  25 0
 3-21G
 ****
 27  28  29  34  36  39  40  41  42  43  44  45  46 0
 3-21G
 ****


