%nproc=1
%NoSave
%Mem=1900MB
#P OB98/GEN NMR

erre ene a

0 1
  C     -173.280    -134.906    -153.047
  O     -173.486    -133.794    -152.201
  H     -173.974    -134.838    -153.891
  H     -173.485    -135.830    -152.498
  H     -172.259    -134.926    -153.433
  P     -172.400    -133.468    -151.071
  C     -171.048    -131.279    -150.873
  O     -172.335    -131.873    -150.921
  C     -171.087    -129.837    -151.399
  O     -171.657    -129.840    -152.735
  C     -171.991    -128.947    -150.535
  O     -171.591    -127.580    -150.564
  C     -173.350    -129.083    -151.216
  O     -174.223    -127.995    -150.939
  C     -172.936    -129.193    -152.684
  N     -177.554    -129.190    -154.853
  C     -177.028    -128.315    -153.922
  N     -177.833    -127.305    -153.521
  N     -175.825    -128.430    -153.418
  C     -175.161    -129.528    -153.854
  C     -175.586    -130.480    -154.751
  C     -176.903    -130.323    -155.336
  O     -177.426    -131.081    -156.140
  N     -174.630    -131.451    -154.941
  C     -173.637    -131.096    -154.163
  N     -173.896    -129.921    -153.494
  O     -171.002    -133.806    -151.784
  O     -172.558    -134.225    -149.786
  H     -175.042    -128.137    -151.446
  H     -170.316    -133.985    -151.114
  H     -178.476    -129.040    -155.232
  H     -172.708    -131.635    -154.047
  H     -172.821    -128.186    -153.124
  H     -173.831    -129.993    -150.841
  H     -178.823    -127.296    -153.737
  H     -172.046    -129.282    -149.497
  H     -177.588    -126.850    -152.636
  H     -170.069    -129.439    -151.487
  H     -170.383    -131.896    -151.487
  H     -170.654    -131.305    -149.856
  P     -170.914    -126.949    -149.256
  C     -169.440    -124.807    -148.767
  O     -170.376    -125.478    -149.576
  O     -169.585    -127.813    -149.059
  O     -171.790    -126.977    -148.034
  H     -169.627    -128.316    -148.226
  H     -169.236    -123.842    -149.183
  H     -168.534    -125.375    -148.723
  H     -169.838    -124.693    -147.780

 6  7  8  9  10  11  12  13  14  15  26  29  33  34 0
 6-311+G(2d,p)
 ****
 36  38  39  40  41 0
 6-311+G(2d,p)
 ****
 1  2  3  4  5  16  17  18  19  20  21  22  23  24  25 0
 3-21G
 ****
 27  28  30  31  32  35  37  42  43  44  45  46  47 0
 3-21G
 ****
 48  49 0
 3-21G
 ****


