%nproc=1
%NoSave
%Mem=1900MB
#P OB98/GEN NMR

erre ene a

0 1
  C     -527.012     534.923    -193.710
  O     -526.650     535.075    -192.346
  P     -527.498     534.246    -191.253
  C     -525.604     532.823    -190.103
  O     -526.687     532.880    -191.023
  C     -524.721     531.602    -190.401
  O     -524.090     531.758    -191.683
  C     -523.588     531.382    -189.410
  O     -524.048     530.819    -188.196
  C     -522.655     530.497    -190.219
  O     -523.118     529.129    -190.184
  C     -522.815     531.079    -191.633
  N     -521.716     531.955    -192.028
  C     -520.470     531.360    -192.200
  O     -520.274     530.163    -192.028
  N     -519.450     532.211    -192.548
  C     -519.534     533.561    -192.678
  O     -518.576     534.282    -192.944
  C     -520.867     534.148    -192.458
  C     -521.888     533.326    -192.149
  O     -528.763     533.821    -192.129
  O     -527.801     535.036    -190.027
  H     -528.548     533.753    -193.084
  H     -523.053     528.846    -189.246
  H     -518.540     531.796    -192.696
  H     -520.983     535.214    -192.537
  H     -522.869     533.735    -191.969
  H     -522.880     530.260    -192.381
  H     -521.623     530.504    -189.837
  H     -523.084     532.343    -189.197
  H     -525.368     530.716    -190.449
  H     -526.010     532.741    -189.089
  H     -525.016     533.745    -190.178
  P     -523.910     531.722    -186.869
  C     -526.414     531.564    -186.132
  O     -525.358     532.367    -186.618
  O     -523.028     532.939    -187.424
  O     -523.308     531.004    -185.716
  H     -523.306     533.239    -188.312
  H     -527.175     532.218    -185.692
  H     -526.076     530.863    -185.372
  H     -526.865     531.004    -186.969
  H     -526.371     535.526    -194.319
  H     -528.027     535.232    -193.846
  H     -526.911     533.896    -193.994

 3  4  5  6  7  8  9  10  11  12  13  24  28  29  30  31  32 0
 6-311+G(2d,p)
 ****
 33  34 0
 6-311+G(2d,p)
 ****
 1  2  14  15  16  17  18  19  20  21  22  23  25  26  27 0
 3-21G
 ****
 35  36  37  38  39  40  41  42  43  44  45 0
 3-21G
 ****


