%nproc=1
%NoSave
%Mem=1900MB
#P OB98/GEN NMR

erre ene a

0 1
  C      -80.963    -175.888     -32.627
  O      -80.963    -177.262     -33.025
  P      -80.029    -177.637     -34.280
  C      -77.954    -177.883     -32.743
  O      -78.780    -178.486     -33.728
  C      -77.553    -178.886     -31.654
  O      -78.533    -178.904     -30.570
  C      -77.420    -180.330     -32.161
  O      -76.358    -180.938     -31.413
  C      -78.741    -180.953     -31.746
  O      -78.668    -182.380     -31.730
  C      -78.929    -180.284     -30.382
  N      -82.034    -182.895     -27.376
  C      -80.731    -183.154     -27.741
  N      -80.148    -184.237     -27.185
  N      -80.052    -182.410     -28.577
  C      -80.747    -181.333     -29.029
  C      -82.040    -180.965     -28.729
  C      -82.792    -181.816     -27.824
  O      -83.948    -181.632     -27.467
  N      -82.390    -179.785     -29.354
  C      -81.323    -179.494     -30.082
  N      -80.285    -180.366     -29.874
  O      -79.385    -176.229     -34.683
  O      -80.771    -178.257     -35.418
  H      -79.447    -182.707     -31.226
  H      -79.850    -175.854     -35.454
  H      -82.517    -183.515     -26.741
  H      -81.241    -178.652     -30.753
  H      -78.284    -180.725     -29.610
  H      -79.538    -180.655     -32.440
  H      -80.597    -184.825     -26.493
  H      -77.229    -180.417     -33.235
  H      -79.174    -184.425     -27.405
  H      -76.596    -178.560     -31.222
  H      -78.479    -177.042     -32.277
  H      -77.071    -177.455     -33.230
  P      -74.952    -181.166     -32.154
  C      -73.995    -178.835     -31.543
  O      -73.872    -180.239     -31.412
  O      -75.169    -180.432     -33.566
  O      -74.568    -182.597     -32.346
  H      -74.735    -180.952     -34.272
  H      -73.537    -178.359     -30.670
  H      -75.044    -178.522     -31.601
  H      -73.467    -178.501     -32.443
  H      -81.616    -175.759     -31.789
  H      -81.303    -175.281     -33.440
  H      -79.970    -175.596     -32.354

 3  4  5  6  7  8  9  10  11  12  23  26  30  31 0
 6-311+G(2d,p)
 ****
 33  35  36  37  38 0
 6-311+G(2d,p)
 ****
 1  2  13  14  15  16  17  18  19  20  21  22  24  25 0
 3-21G
 ****
 27  28  29  32  34  39  40  41  42  43  44  45  46  47  48  49 0
 3-21G
 ****


