%nproc=1
%NoSave
%Mem=1900MB
#P OB98/GEN NMR

erre ene a

0 1
  C     -224.646    -279.288    -563.791
  O     -224.175    -280.067    -562.697
  P     -223.006    -281.129    -562.988
  C     -221.272    -279.694    -561.670
  O     -221.617    -280.322    -562.905
  C     -219.918    -280.186    -561.165
  O     -218.871    -279.674    -562.046
  C     -219.575    -279.753    -559.734
  O     -218.826    -280.815    -559.138
  C     -218.694    -278.534    -559.979
  O     -217.915    -278.144    -558.855
  C     -217.907    -279.009    -561.200
  N     -213.538    -276.413    -561.813
  C     -213.844    -277.499    -561.067
  N     -215.028    -278.143    -560.959
  C     -215.959    -277.556    -561.739
  C     -215.800    -276.436    -562.535
  C     -214.520    -275.850    -562.558
  N     -214.211    -274.737    -563.317
  N     -216.985    -276.113    -563.168
  C     -217.840    -277.021    -562.755
  N     -217.266    -277.922    -561.907
  O     -223.165    -281.427    -564.549
  O     -223.066    -282.378    -562.161
  H     -217.411    -278.908    -558.514
  H     -223.001    -282.371    -564.745
  H     -213.032    -277.909    -560.477
  H     -218.891    -277.060    -563.030
  H     -217.132    -279.741    -560.930
  H     -219.331    -277.680    -560.235
  H     -220.455    -279.542    -559.116
  H     -219.898    -281.288    -561.243
  H     -222.035    -279.931    -560.918
  H     -213.330    -274.280    -563.112
  H     -214.990    -274.210    -563.703
  H     -221.272    -278.604    -561.810
  P     -218.924    -281.038    -557.553
  C     -220.685    -282.821    -558.150
  O     -220.377    -281.704    -557.344
  O     -219.171    -279.549    -557.046
  O     -217.761    -281.731    -556.923
  H     -219.900    -279.118    -557.533
  H     -221.654    -283.226    -557.836
  H     -219.923    -283.597    -558.032
  H     -220.757    -282.515    -559.198
  H     -225.418    -278.629    -563.453
  H     -225.036    -279.936    -564.548
  H     -223.838    -278.714    -564.194

 3  4  5  6  7  8  9  10  11  12  22  25  29  30  31  32 0
 6-311+G(2d,p)
 ****
 33  36  37 0
 6-311+G(2d,p)
 ****
 1  2  13  14  15  16  17  18  19  20  21  23  24  26 0
 3-21G
 ****
 27  28  34  35  38  39  40  41  42  43  44  45  46  47  48 0
 3-21G
 ****


