%nproc=1
%NoSave
%Mem=1900MB
#P OB98/GEN NMR

erre ene a

0 1
  C     -122.232     416.378    -702.498
  O     -122.434     415.615    -703.695
  P     -123.913     415.026    -703.936
  C     -123.430     415.621    -706.423
  O     -124.067     414.739    -705.506
  C     -123.572     415.106    -707.852
  O     -122.965     413.803    -708.002
  C     -125.014     414.929    -708.313
  O     -125.593     416.168    -708.702
  C     -124.824     414.017    -709.516
  O     -124.474     414.797    -710.673
  C     -123.643     413.130    -709.081
  N     -124.755     408.383    -710.459
  C     -124.383     409.459    -711.230
  N     -124.244     409.224    -712.562
  N     -124.136     410.648    -710.746
  C     -124.280     410.724    -709.400
  C     -124.659     409.727    -708.532
  C     -124.939     408.421    -709.081
  O     -125.318     407.438    -708.443
  N     -124.677     410.177    -707.235
  C     -124.298     411.435    -707.315
  N     -124.054     411.822    -708.618
  O     -124.850     416.305    -703.699
  O     -124.269     413.894    -703.029
  H     -125.239     415.378    -710.871
  H     -125.735     416.024    -703.401
  H     -124.930     407.486    -710.882
  H     -124.177     412.107    -706.479
  H     -122.919     412.999    -709.893
  H     -125.736     413.461    -709.773
  H     -124.339     408.322    -712.985
  H     -125.603     414.417    -707.546
  H     -123.929     410.004    -713.133
  H     -123.052     415.808    -708.521
  H     -122.373     415.715    -706.174
  H     -123.867     416.619    -706.317
  P     -126.737     416.768    -707.740
  C     -125.773     419.042    -706.917
  O     -126.578     418.356    -707.852
  O     -126.181     416.430    -706.277
  O     -128.095     416.217    -707.970
  H     -126.917     416.331    -705.650
  H     -124.842     418.493    -706.728
  H     -126.319     419.151    -705.971
  H     -125.525     420.026    -707.305
  H     -121.216     416.711    -702.455
  H     -122.444     415.767    -701.646
  H     -122.885     417.225    -702.501

 3  4  5  6  7  8  9  10  11  12  23  26  30  31  33  0
 6-311+G(2d,p)
 ****
 35  36  37  38 0
 6-311+G(2d,p)
 ****
 1  2  13  14  15  16  17  18  19  20  21  22  24  25  27  28  29 0
 3-21G
 ****
 32  34  39  40  41  42  43  44  45  46  47  48  49 0
 3-21G
 ****


