%nproc=1
%NoSave
%Mem=1900MB
#P OB98/GEN NMR

erre ene a

0 1
  C      199.371      57.080     153.829
  O      198.386      57.122     152.815
  H      199.500      58.086     154.240
  H      200.326      56.745     153.412
  H      199.061      56.407     154.635
  P      197.957      55.724     152.157
  C      198.723      54.380     150.058
  O      198.967      55.473     150.931
  C      199.828      54.300     149.001
  O      199.714      55.454     148.121
  C      201.243      54.322     149.601
  O      202.090      53.467     148.827
  C      201.674      55.770     149.428
  O      203.086      55.950     149.409
  C      200.999      56.116     148.098
  N      200.833      57.560     147.907
  C      201.298      58.105     146.713
  O      201.766      57.456     145.779
  N      201.210      59.473     146.616
  C      200.739      60.323     147.577
  O      200.708      61.538     147.434
  C      200.271      59.688     148.819
  C      200.342      58.356     148.926
  O      196.575      56.067     151.426
  O      197.838      54.573     153.100
  H      195.820      55.914     152.029
  H      203.438      55.656     150.274
  H      201.539      59.887     145.755
  H      199.901      60.329     149.604
  H      200.021      57.858     149.834
  H      201.567      55.695     147.257
  H      201.267      56.384     150.244
  H      201.264      54.015     150.650
  H      199.673      53.406     148.385
  H      197.759      54.527     149.558
  H      198.687      53.452     150.641
  P      202.761      52.214     149.580
  C      204.930      51.922     151.019
  O      204.180      52.739     150.132
  O      203.140      51.267     148.349
  O      201.861      51.597     150.600
  H      203.438      51.756     147.560
  H      205.838      52.422     151.283
  H      205.161      50.993     150.540
  H      204.356      51.735     151.903

 6  7  8  9  10  11  12  13  14  15  16  27  31  32  33  34  35 0
 6-311+G(2d,p)
 ****
 36  37 0
 6-311+G(2d,p)
 ****
 1  2  3  4  5  17  18  19  20  21  22  23  24  25 0
 3-21G
 ****
 26  28  29  30  38  39  40  41  42  43  44  45 0
 3-21G
 ****


