%nproc=1
%NoSave
%Mem=1900MB
#P OB98/GEN NMR

erre ene a

0 1
  C     -267.380     190.020     -81.661
  O     -266.281     190.779     -82.125
  H     -268.203     190.704     -81.434
  H     -267.115     189.478     -80.751
  H     -267.712     189.319     -82.431
  P     -264.912     190.018     -82.463
  C     -263.985     190.864     -80.209
  O     -263.759     190.738     -81.612
  C     -263.201     192.063     -79.655
  O     -261.797     191.713     -79.645
  C     -263.377     193.328     -80.517
  O     -263.796     194.466     -79.768
  C     -262.055     193.425     -81.269
  O     -261.699     194.733     -81.676
  C     -261.061     192.758     -80.310
  N     -259.873     192.218     -80.967
  C     -258.718     192.092     -80.196
  O     -258.626     192.376     -79.000
  N     -257.619     191.602     -80.855
  C     -257.567     191.236     -82.168
  O     -256.547     190.797     -82.700
  C     -258.809     191.414     -82.933
  C     -259.886     191.888     -82.310
  O     -264.606     189.857     -83.917
  O     -265.065     188.597     -81.737
  H     -260.779     194.698     -82.006
  H     -265.290     187.914     -82.397
  H     -256.780     191.496     -80.305
  H     -258.796     191.143     -83.982
  H     -260.823     192.029     -82.842
  H     -260.726     193.471     -79.551
  H     -262.131     192.813     -82.183
  H     -264.188     193.191     -81.245
  H     -263.509     192.237     -78.618
  H     -263.645     189.936     -79.730
  H     -265.052     190.997     -80.016
  P     -265.319     194.884     -79.523
  C     -265.376     197.181     -80.788
  O     -265.408     196.481     -79.551
  O     -266.004     194.186     -78.398
  O     -266.046     194.437     -80.894
  H     -266.960     194.171     -80.652
  H     -265.446     198.233     -80.605
  H     -266.200     196.869     -81.396
  H     -264.458     196.968     -81.295

 6  7  8  9  10  11  12  13  14  15  16  26  31  32  33  34  35 0
 6-311+G(2d,p)
 ****
 36  37 0
 6-311+G(2d,p)
 ****
 1  2  3  4  5  17  18  19  20  21  22  23  24  25 0
 3-21G
 ****
 27  28  29  30  38  39  40  41  42  43  44  45 0
 3-21G
 ****


