%nproc=1
%NoSave
%Mem=1900MB
#P OB98/GEN NMR

erre ene a

0 1
  C        7.680     103.033     351.091
  O        8.226     103.821     352.132
  H        7.595     103.649     350.192
  H        6.684     102.683     351.374
  H        8.329     102.180     350.876
  P        8.647     103.043     353.467
  C       11.239     103.042     353.070
  O       10.036     102.291     353.164
  C       12.436     102.102     352.970
  O       12.525     101.258     354.135
  C       12.360     101.115     351.817
  O       12.578     101.725     350.564
  C       13.456     100.134     352.213
  O       14.748     100.585     351.790
  C       13.353     100.133     353.757
  N       12.840      98.873     354.261
  C       13.397      97.725     353.683
  O       14.273      97.829     352.824
  N       12.919      96.499     354.066
  C       11.953      96.425     354.927
  N       11.503      95.180     355.239
  C       11.338      97.610     355.559
  C       11.825      98.791     355.183
  O        7.588     101.847     353.517
  O        8.678     103.884     354.698
  H       15.401     100.096     352.333
  H        7.503     101.363     352.680
  H       10.544      97.493     356.282
  H       11.431      99.713     355.597
  H       14.339     100.307     354.207
  H       13.298      99.151     351.761
  H       11.400     100.582     351.839
  H       13.347     102.713     352.912
  H       11.915      94.399     354.742
  H       11.347     103.704     353.935
  H       10.707      95.003     355.834
  H       11.171     103.671     352.178
  P       12.189     100.984     349.199
  C        9.720     101.717     349.258
  O       10.626     100.620     349.300
  O       13.063      99.836     348.823
  O       12.183     102.177     348.129
  H       11.555     102.895     348.321
  H        8.716     101.354     349.333
  H        9.841     102.244     348.335
  H        9.922     102.378     350.075

 6  7  8  9  10  11  12  13  14  15  16  26  30  31  32  33  35 0
 6-311+G(2d,p)
 ****
 37  38 0
 6-311+G(2d,p)
 ****
 1  2  3  4  5  17  18  19  20  21  22  23  24  25 0
 3-21G
 ****
 27  28  29  34  36  39  40  41  42  43  44  45  46 0
 3-21G
 ****


