%nproc=1
%NoSave
%Mem=1900MB
#P OB98/GEN NMR

erre ene a

0 1
  C      503.960    -449.923     134.778
  O      504.808    -450.561     135.712
  H      503.127    -450.595     134.550
  H      504.500    -449.710     133.853
  H      503.553    -448.996     135.198
  P      506.119    -449.780     136.214
  C      505.247    -450.039     138.639
  O      506.314    -450.275     137.731
  C      505.346    -450.997     139.825
  O      504.868    -452.315     139.484
  C      506.760    -451.229     140.349
  O      507.294    -450.130     141.074
  C      506.525    -452.445     141.228
  O      505.884    -452.037     142.451
  C      505.566    -453.266     140.334
  N      506.261    -454.266     139.528
  C      506.650    -455.444     140.180
  O      506.426    -455.599     141.380
  N      507.334    -456.401     139.469
  C      507.625    -456.193     138.219
  N      508.309    -457.179     137.564
  C      507.242    -454.961     137.495
  C      506.572    -454.058     138.200
  O      506.114    -448.298     136.017
  O      507.333    -450.515     135.475
  H      506.309    -451.209     142.731
  H      508.166    -450.064     135.745
  H      507.535    -454.829     136.465
  H      506.265    -453.120     137.742
  H      504.800    -453.773     140.946
  H      507.441    -452.967     141.495
  H      507.436    -451.519     139.528
  H      504.687    -450.610     140.618
  H      508.551    -458.009     138.085
  H      504.305    -450.179     138.105
  H      508.641    -457.071     136.613
  H      505.298    -449.014     139.020
  P      508.434    -449.257     140.342
  C      507.971    -447.211     141.911
  O      508.911    -448.162     141.410
  O      507.606    -448.419     139.259
  O      509.543    -450.055     139.733
  H      507.670    -448.840     138.376
  H      508.458    -446.562     142.608
  H      507.170    -447.725     142.401
  H      507.580    -446.634     141.099

 6  7  8  9  10  11  12  13  14  15  16  26  30  31  32  33  35 0
 6-311+G(2d,p)
 ****
 37  38 0
 6-311+G(2d,p)
 ****
 1  2  3  4  5  17  18  19  20  21  22  23  24  25 0
 3-21G
 ****
 27  28  29  34  36  39  40  41  42  43  44  45  46 0
 3-21G
 ****


