%nproc=1
%NoSave
%Mem=1900MB
#P OB98/GEN NMR

erre ene a

0 1
  C      -76.796    -275.552    -165.507
  O      -78.048    -275.128    -166.074
  P      -78.055    -273.932    -167.147
  C      -77.762    -275.209    -169.403
  O      -78.613    -274.447    -168.561
  C      -78.575    -276.090    -170.366
  O      -79.051    -277.281    -169.672
  C      -79.806    -275.403    -170.973
  O      -79.983    -275.941    -172.291
  C      -80.926    -275.874    -170.062
  O      -82.214    -275.748    -170.648
  C      -80.486    -277.322    -169.817
  N      -81.113    -277.948    -168.651
  C      -82.237    -278.737    -168.864
  O      -82.781    -278.895    -169.952
  N      -82.760    -279.340    -167.744
  C      -82.304    -279.198    -166.466
  O      -82.836    -279.741    -165.504
  C      -81.132    -278.331    -166.299
  C      -80.600    -277.755    -167.380
  O      -76.489    -273.748    -167.447
  O      -78.640    -272.642    -166.668
  H      -82.162    -276.119    -171.546
  H      -76.261    -272.798    -167.434
  H      -83.567    -279.927    -167.880
  H      -80.734    -278.196    -165.302
  H      -79.723    -277.121    -167.282
  H      -80.696    -277.923    -170.709
  H      -80.920    -275.278    -169.140
  H      -79.712    -274.315    -171.017
  H      -77.899    -276.439    -171.158
  H      -77.125    -275.851    -168.789
  H      -77.121    -274.527    -169.972
  P      -79.617    -275.010    -173.553
  C      -77.084    -275.619    -173.813
  O      -78.400    -275.709    -174.319
  O      -78.916    -273.776    -172.800
  O      -80.791    -274.606    -174.382
  H      -78.283    -274.060    -172.120
  H      -77.067    -275.730    -172.726
  H      -76.649    -274.655    -174.089
  H      -76.481    -276.417    -174.255
  H      -76.969    -276.351    -164.817
  H      -76.340    -274.731    -164.995
  H      -76.147    -275.890    -166.288

 3  4  5  6  7  8  9  10  11  12  13  23  28  29  30  31  32 0
 6-311+G(2d,p)
 ****
 33  34 0
 6-311+G(2d,p)
 ****
 1  2  14  15  16  17  18  19  20  21  22  24  25  26 0
 3-21G
 ****
 27  35  36  37  38  39  40  41  42  43  44  45 0
 3-21G
 ****


