%nproc=1
%NoSave
%Mem=1900MB
#P OB98/GEN NMR

erre ene a

0 1
  C       58.995      10.055    -134.524
  O       58.993       8.703    -134.070
  P       60.168       8.026    -133.229
  C       59.298       8.121    -130.758
  O       59.526       7.351    -131.928
  C       59.171       7.264    -129.487
  O       59.133       8.130    -128.321
  C       57.853       6.486    -129.492
  O       57.756       5.259    -130.189
  C       57.451       6.402    -128.027
  O       57.889       5.193    -127.405
  C       58.153       7.609    -127.398
  N       54.576       9.180    -124.096
  C       55.223       7.964    -124.166
  N       54.838       7.024    -123.279
  N       56.152       7.688    -125.043
  C       56.380       8.685    -125.926
  C       55.788       9.927    -125.972
  C       54.800      10.245    -124.960
  O       54.206      11.311    -124.845
  N       56.256      10.670    -127.026
  C       57.107       9.870    -127.632
  N       57.225       8.653    -126.998
  O       61.383       8.866    -133.025
  O       60.595       6.764    -134.140
  H       57.560       4.446    -127.937
  H       61.556       6.634    -134.003
  H       53.883       9.348    -123.386
  H       57.671      10.121    -128.524
  H       58.703       7.321    -126.494
  H       56.358       6.426    -127.927
  H       54.050       7.131    -122.659
  H       57.103       7.135    -129.963
  H       55.151       6.068    -123.465
  H       60.050       6.627    -129.357
  H       58.381       8.694    -130.926
  H       60.099       8.851    -130.630
  P       56.548       4.798    -131.131
  C       57.014       5.482    -133.556
  O       57.146       4.466    -132.576
  O       55.726       6.147    -131.394
  O       55.663       3.742    -130.554
  H       54.836       5.944    -131.737
  H       57.166       5.045    -134.545
  H       57.771       6.253    -133.388
  H       56.018       5.936    -133.516
  H       58.091      10.252    -135.062
  H       59.835      10.214    -135.168
  H       59.060      10.713    -133.683

 3  4  5  6  7  8  9  10  11  12  23  26  30  31 0
 6-311+G(2d,p)
 ****
 33  35  36  37  38 0
 6-311+G(2d,p)
 ****
 1  2  13  14  15  16  17  18  19  20  21  22  24  25 0
 3-21G
 ****
 27  28  29  32  34  39  40  41  42  43  44  45  46  47  48  49 0
 3-21G
 ****


