%nproc=1
%NoSave
%Mem=1900MB
#P OB98/GEN NMR

erre ene a

0 1
  C       38.650     -55.504      15.646
  O       37.982     -55.867      14.459
  P       37.052     -57.173      14.414
  C       38.208     -57.631      12.160
  O       37.757     -58.189      13.389
  C       38.562     -58.743      11.177
  O       39.760     -59.447      11.596
  C       37.508     -59.834      11.066
  O       36.261     -59.478      10.512
  C       38.289     -60.933      10.365
  O       38.353     -60.709       8.957
  C       39.692     -60.768      11.003
  N       39.972     -61.816      11.982
  C       39.945     -63.120      11.501
  O       39.704     -63.410      10.330
  N       40.177     -64.103      12.425
  C       40.381     -63.914      13.761
  O       40.537     -64.845      14.542
  C       40.381     -62.516      14.213
  C       40.181     -61.544      13.319
  O       35.610     -56.916      14.139
  O       37.331     -57.872      15.828
  H       38.804     -59.854       8.815
  H       38.259     -58.121      15.983
  H       40.149     -65.056      12.101
  H       40.554     -62.331      15.265
  H       40.175     -60.504      13.630
  H       40.469     -60.806      10.230
  H       37.833     -61.916      10.515
  H       37.285     -60.197      12.078
  H       38.778     -58.288      10.207
  H       39.099     -57.026      12.350
  H       37.434     -56.971      11.753
  P       34.874     -59.611      11.302
  C       33.775     -58.557       9.205
  O       33.677     -59.509      10.241
  O       34.743     -58.824      12.564
  O       34.861     -61.177      11.662
  H       34.386     -61.304      12.505
  H       32.859     -58.596       8.608
  H       34.624     -58.785       8.555
  H       33.879     -57.550       9.618
  H       39.216     -54.612      15.478
  H       39.309     -56.294      15.941
  H       37.932     -55.331      16.420

 3  4  5  6  7  8  9  10  11  12  13  23  28  29  30  31  32 0
 6-311+G(2d,p)
 ****
 33  34 0
 6-311+G(2d,p)
 ****
 1  2  14  15  16  17  18  19  20  21  22  24  25  26  27 0
 3-21G
 ****
 35  36  37  38  39  40  41  42  43  44  45 0
 3-21G
 ****


