%nproc=1
%NoSave
%Mem=1900MB
#P OB98/GEN NMR

erre ene a

0 1
  C      -10.781     241.624    -729.922
  O      -10.008     241.873    -731.075
  H      -10.451     242.293    -729.125
  H      -10.637     240.586    -729.597
  H      -11.845     241.806    -730.109
  P      -10.487     241.266    -732.480
  C      -10.981     243.497    -733.695
  O      -10.137     242.353    -733.604
  C      -10.151     244.768    -733.932
  O       -9.577     245.206    -732.662
  C       -8.974     244.500    -734.883
  O       -8.599     245.677    -735.602
  C       -7.851     244.125    -733.922
  O       -6.549     244.327    -734.475
  C       -8.154     245.031    -732.722
  N       -4.126     244.217    -729.700
  C       -4.165     244.629    -731.023
  N       -2.963     244.858    -731.610
  N       -5.265     244.779    -731.705
  C       -6.383     244.445    -731.013
  C       -6.473     243.999    -729.710
  C       -5.244     243.866    -728.950
  O       -5.160     243.486    -727.795
  N       -7.780     243.744    -729.357
  C       -8.473     244.037    -730.436
  N       -7.677     244.487    -731.466
  O      -12.088     241.358    -732.404
  O      -10.028     239.868    -732.768
  H       -5.908     244.168    -733.763
  H      -12.496     240.723    -733.014
  H       -3.252     244.144    -729.215
  H       -9.554     243.943    -730.530
  H       -7.704     246.012    -732.859
  H       -7.938     243.068    -733.688
  H       -2.101     244.569    -731.179
  H       -9.171     243.696    -735.581
  H       -2.954     244.860    -732.637
  H      -10.802     245.581    -734.282
  H      -11.522     243.561    -732.750
  H      -11.718     243.363    -734.488
  P       -7.694     245.507    -736.913
  C       -9.526     246.213    -738.691
  O       -8.265     246.422    -738.093
  O       -8.013     244.015    -737.406
  O       -6.222     245.724    -736.687
  H       -7.208     243.453    -737.343
  H       -9.686     246.948    -739.452
  H      -10.291     246.297    -737.948
  H       -9.557     245.236    -739.126

 6  7  8  9  10  11  12  13  14  15  26  29  33  34 0
 6-311+G(2d,p)
 ****
 36  38  39  40  41 0
 6-311+G(2d,p)
 ****
 1  2  3  4  5  16  17  18  19  20  21  22  23  24  25 0
 3-21G
 ****
 27  28  30  31  32  35  37  42  43  44  45  46  47 0
 3-21G
 ****
 48  49 0
 3-21G
 ****


