%nproc=1
%NoSave
%Mem=1900MB
#P OB98/GEN NMR

erre ene a

0 1
  C      583.247     320.975    -805.573
  O      583.702     319.762    -806.181
  P      584.328     318.638    -805.215
  C      586.347     317.776    -806.643
  O      585.038     317.557    -806.142
  C      586.546     317.053    -807.996
  O      586.497     315.621    -807.758
  C      585.480     317.329    -809.044
  O      585.992     316.946    -810.331
  C      584.397     316.353    -808.643
  O      583.473     316.118    -809.705
  C      585.208     315.119    -808.194
  N      584.565     314.361    -807.088
  C      583.679     313.346    -807.407
  O      583.377     313.036    -808.561
  N      583.087     312.700    -806.357
  C      583.327     312.939    -805.030
  O      582.702     312.398    -804.120
  C      584.383     313.920    -804.737
  C      584.932     314.582    -805.759
  O      583.034     317.883    -804.639
  O      585.183     319.189    -804.124
  H      582.909     315.359    -809.429
  H      582.887     318.142    -803.710
  H      582.380     312.006    -806.575
  H      584.641     314.083    -803.710
  H      585.704     315.325    -805.564
  H      585.364     314.410    -809.015
  H      583.828     316.748    -807.807
  H      585.124     318.354    -809.078
  H      587.544     317.285    -808.381
  H      587.095     317.449    -805.921
  H      586.501     318.856    -806.797
  P      586.355     318.127    -811.367
  C      585.108     316.711    -813.116
  O      586.271     317.481    -812.833
  O      587.596     318.911    -811.075
  O      585.039     319.053    -811.319
  H      585.249     319.942    -811.669
  H      584.895     316.769    -814.185
  H      584.241     317.058    -812.562
  H      585.314     315.665    -812.858
  H      582.858     321.627    -806.326
  H      584.065     321.453    -805.075
  H      582.478     320.752    -804.863

 3  4  5  6  7  8  9  10  11  12  13  23  28  29  30  31  32 0
 6-311+G(2d,p)
 ****
 33  34 0
 6-311+G(2d,p)
 ****
 1  2  14  15  16  17  18  19  20  21  22  24  25  26  27 0
 3-21G
 ****
 35  36  37  38  39  40  41  42  43  44  45 0
 3-21G
 ****


