%nproc=1
%NoSave
%Mem=1900MB
#P OB98/GEN NMR

erre ene a

0 1
  C       43.761    -612.398      95.916
  O       45.154    -612.605      96.063
  H       43.263    -612.708      96.839
  H       43.371    -613.007      95.091
  H       43.544    -611.340      95.739
  P       46.114    -612.234      94.833
  C       45.506    -614.520      93.777
  O       45.550    -613.112      93.609
  C       45.785    -615.218      92.443
  O       44.867    -614.776      91.417
  C       47.169    -614.958      91.859
  O       48.208    -615.640      92.535
  C       46.954    -615.476      90.444
  O       46.969    -616.914      90.454
  C       45.546    -614.922      90.142
  N       45.584    -613.642      89.426
  C       45.774    -613.703      88.044
  O       45.914    -614.782      87.472
  N       45.837    -612.522      87.333
  C       45.741    -611.392      87.956
  N       45.818    -610.256      87.201
  C       45.562    -611.281      89.417
  C       45.485    -612.431      90.087
  O       47.584    -612.356      95.089
  O       45.666    -610.753      94.402
  H       46.993    -617.206      89.530
  H       46.241    -610.472      93.652
  H       45.521    -610.309      89.892
  H       45.360    -612.434      91.157
  H       44.965    -615.644      89.545
  H       47.734    -615.148      89.746
  H       47.372    -613.882      91.804
  H       45.604    -616.295      92.593
  H       45.946    -610.359      86.209
  H       44.516    -614.789      94.166
  H       45.835    -609.327      87.617
  H       46.269    -614.835      94.495
  P       49.684    -614.979      92.452
  C       50.454    -616.691      90.632
  O       50.253    -615.332      90.996
  O       50.540    -615.896      93.446
  O       49.752    -613.523      92.807
  H       50.634    -615.463      94.316
  H       50.835    -616.740      89.633
  H       49.523    -617.216      90.684
  H       51.155    -617.140      91.304

 6  7  8  9  10  11  12  13  14  15  16  26  30  31  32  33  35 0
 6-311+G(2d,p)
 ****
 37  38 0
 6-311+G(2d,p)
 ****
 1  2  3  4  5  17  18  19  20  21  22  23  24  25 0
 3-21G
 ****
 27  28  29  34  36  39  40  41  42  43  44  45  46 0
 3-21G
 ****


