%nproc=1
%NoSave
%Mem=1900MB
#P OB98/GEN NMR

erre ene a

0 1
  C     -175.486     -37.172    -206.361
  O     -176.702     -36.497    -206.076
  P     -178.066     -37.329    -206.209
  C     -178.026     -36.960    -208.769
  O     -178.771     -36.835    -207.566
  C     -178.499     -35.951    -209.808
  O     -177.750     -36.155    -211.039
  C     -179.993     -36.054    -210.155
  O     -180.552     -34.735    -210.231
  C     -179.990     -36.635    -211.559
  O     -181.168     -36.289    -212.280
  C     -178.704     -36.025    -212.110
  N     -179.433     -36.516    -217.084
  C     -179.970     -35.602    -216.200
  N     -180.874     -34.733    -216.706
  N     -179.655     -35.545    -214.933
  C     -178.716     -36.453    -214.571
  C     -178.104     -37.403    -215.356
  C     -178.506     -37.493    -216.743
  O     -178.134     -38.337    -217.556
  N     -177.191     -38.131    -214.635
  C     -177.255     -37.629    -213.418
  N     -178.200     -36.640    -213.317
  O     -178.980     -36.702    -205.054
  O     -177.931     -38.805    -206.050
  H     -181.888     -36.855    -211.943
  H     -179.283     -37.409    -204.453
  H     -179.723     -36.526    -218.045
  H     -176.661     -37.968    -212.578
  H     -178.843     -34.954    -212.316
  H     -179.927     -37.727    -211.497
  H     -181.134     -34.697    -217.679
  H     -180.576     -36.663    -209.456
  H     -181.261     -34.041    -216.078
  H     -178.254     -34.941    -209.451
  H     -178.152     -37.971    -209.167
  H     -176.965     -36.801    -208.546
  P     -181.838     -34.464    -209.305
  C     -183.485     -35.686    -210.910
  O     -183.096     -34.474    -210.296
  O     -181.682     -32.924    -208.900
  O     -181.930     -35.363    -208.118
  H     -182.152     -32.741    -208.065
  H     -182.951     -36.548    -210.499
  H     -183.279     -35.623    -211.982
  H     -184.557     -35.831    -210.763
  H     -174.665     -36.498    -206.232
  H     -175.502     -37.525    -207.371
  H     -175.374     -38.002    -205.695

 3  4  5  6  7  8  9  10  11  12  23  26  30  31  33  0
 6-311+G(2d,p)
 ****
 35  36  37  38 0
 6-311+G(2d,p)
 ****
 1  2  13  14  15  16  17  18  19  20  21  22  24  25  27  28  29 0
 3-21G
 ****
 32  34  39  40  41  42  43  44  45  46  47  48  49 0
 3-21G
 ****


