%nproc=1
%NoSave
%Mem=1900MB
#P OB98/GEN NMR

erre ene a

0 1
  C       71.797     -36.716    -324.197
  O       70.990     -37.028    -325.315
  H       72.426     -35.853    -324.428
  H       71.148     -36.461    -323.355
  H       72.421     -37.569    -323.916
  P       71.711     -37.718    -326.570
  C       70.364     -39.930    -326.738
  O       71.579     -39.305    -326.352
  C       69.857     -40.847    -325.626
  O       69.511     -40.029    -324.473
  C       68.618     -41.674    -326.005
  O       68.748     -42.975    -325.426
  C       67.485     -40.937    -325.314
  O       66.371     -41.779    -325.035
  C       68.187     -40.414    -324.065
  N       64.868     -39.099    -320.445
  C       65.622     -40.206    -320.619
  N       66.526     -40.454    -321.588
  C       66.665     -39.386    -322.393
  C       65.974     -38.189    -322.336
  C       65.019     -38.069    -321.311
  N       64.198     -36.975    -321.166
  N       66.359     -37.360    -323.373
  C       67.246     -38.057    -324.056
  N       67.463     -39.288    -323.503
  O       73.261     -37.428    -326.279
  O       71.292     -37.216    -327.909
  H       66.669     -42.522    -324.474
  H       73.507     -36.563    -326.655
  H       65.472     -41.000    -319.893
  H       67.733     -37.735    -324.965
  H       68.275     -41.175    -323.280
  H       67.143     -40.112    -325.949
  H       68.460     -41.764    -327.086
  H       70.679     -41.503    -325.317
  H       70.541     -40.528    -327.638
  H       63.472     -37.024    -320.469
  H       64.222     -36.249    -321.867
  H       69.619     -39.162    -326.967
  P       69.288     -44.153    -326.372
  C       71.128     -45.406    -325.021
  O       70.824     -44.431    -326.011
  O       69.367     -43.460    -327.812
  O       68.413     -45.364    -326.390
  H       69.177     -44.112    -328.510
  H       72.189     -45.471    -324.898
  H       70.745     -46.357    -325.328
  H       70.678     -45.123    -324.092

 6  7  8  9  10  11  12  13  14  15  25  28  32  33  34  35 0
 6-311+G(2d,p)
 ****
 36  39  40 0
 6-311+G(2d,p)
 ****
 1  2  3  4  5  16  17  18  19  20  21  22  23  24 0
 3-21G
 ****
 26  27  29  30  31  37  38  41  42  43  44  45  46  47 0
 3-21G
 ****
 48 0
 3-21G
 ****


