%nproc=1
%NoSave
%Mem=1900MB
#P OB98/GEN NMR

erre ene a

0 1
  C      289.163    -343.587     432.434
  O      290.175    -344.535     432.178
  H      289.228    -342.791     431.688
  H      289.298    -343.148     433.428
  H      288.174    -344.049     432.366
  P      290.239    -345.808     433.153
  C      292.067    -344.800     434.714
  O      290.727    -345.255     434.584
  C      292.247    -344.076     436.042
  O      291.276    -343.006     436.151
  C      292.006    -344.962     437.262
  O      293.117    -345.798     437.550
  C      291.730    -343.918     438.337
  O      292.956    -343.394     438.881
  C      290.983    -342.828     437.558
  N      287.148    -340.908     440.337
  C      288.470    -340.592     440.270
  N      289.423    -341.150     439.499
  C      288.898    -342.096     438.706
  C      287.585    -342.519     438.652
  C      286.677    -341.879     439.518
  N      285.354    -342.210     439.603
  N      287.431    -343.548     437.742
  C      288.635    -343.736     437.234
  N      289.554    -342.882     437.787
  O      291.504    -346.625     432.607
  O      289.004    -346.645     433.179
  H      292.697    -342.634     439.452
  H      291.194    -347.362     432.049
  H      288.795    -339.807     440.945
  H      288.898    -344.475     436.492
  H      291.324    -341.819     437.829
  H      291.164    -344.347     439.158
  H      291.105    -345.564     437.116
  H      293.251    -343.634     436.072
  H      292.295    -344.106     433.894
  H      292.747    -345.663     434.642
  H      284.773    -341.754     440.290
  H      285.011    -343.012     439.084
  P      292.822    -347.269     438.112
  C      293.381    -346.766     440.615
  O      292.390    -347.109     439.653
  O      294.272    -347.945     438.187
  O      291.871    -348.068     437.285
  H      294.200    -348.898     437.969
  H      292.930    -346.700     441.583
  H      293.815    -345.822     440.359
  H      294.142    -347.518     440.626

 6  7  8  9  10  11  12  13  14  15  25  28  32  33  34  35 0
 6-311+G(2d,p)
 ****
 36  37  40 0
 6-311+G(2d,p)
 ****
 1  2  3  4  5  16  17  18  19  20  21  22  23  24 0
 3-21G
 ****
 26  27  29  30  31  38  39 41  42  43  44  45  46  47  48 0
 3-21G
 ****


