%nproc=1
%NoSave
%Mem=1900MB
#P OB98/GEN NMR

erre ene a

0 1
  C     -302.699     153.553     324.645
  O     -301.512     153.899     325.324
  H     -302.662     153.986     323.640
  H     -303.572     153.953     325.162
  H     -302.781     152.465     324.553
  P     -301.379     153.552     326.887
  C     -300.459     155.837     327.622
  O     -301.585     154.966     327.642
  C     -300.466     156.793     328.815
  O     -299.225     157.555     328.839
  C     -301.631     157.796     328.800
  O     -302.233     157.848     330.099
  C     -300.951     159.128     328.487
  O     -301.707     160.241     328.951
  C     -299.580     158.918     329.146
  N     -298.564     159.855     328.657
  C     -298.507     161.095     329.306
  O     -299.310     161.366     330.204
  N     -297.577     162.016     328.890
  C     -296.802     161.740     327.882
  N     -295.909     162.693     327.511
  C     -296.863     160.462     327.144
  C     -297.753     159.572     327.583
  O     -300.131     152.817     327.263
  O     -302.721     152.760     327.239
  H     -301.328     161.058     328.561
  H     -302.588     152.242     328.075
  H     -296.207     160.280     326.305
  H     -297.860     158.598     327.108
  H     -299.647     159.026     330.233
  H     -300.829     159.228     327.396
  H     -302.391     157.561     328.069
  H     -300.472     156.189     329.740
  H     -295.896     163.559     328.044
  H     -300.468     156.403     326.683
  H     -295.261     162.595     326.744
  H     -299.547     155.220     327.662
  P     -303.510     156.897     330.318
  C     -305.332     158.734     330.122
  O     -304.762     157.566     329.552
  O     -303.858     157.100     331.868
  O     -303.255     155.459     329.989
  H     -303.515     156.345     332.389
  H     -306.147     159.066     329.514
  H     -304.590     159.503     330.176
  H     -305.689     158.513     331.106

 6  7  8  9  10  11  12  13  14  15  16  26  30  31  32  33  35 0
 6-311+G(2d,p)
 ****
 37  38 0
 6-311+G(2d,p)
 ****
 1  2  3  4  5  17  18  19  20  21  22  23  24  25 0
 3-21G
 ****
 27  28  29  34  36  39  40  41  42  43  44  45  46 0
 3-21G
 ****


