%nproc=1
%NoSave
%Mem=1900MB
#P OB98/GEN NMR

erre ene a

0 1
  C     -533.726      -6.876    -321.444
  O     -533.145      -6.901    -322.734
  P     -532.471      -8.247    -323.284
  C     -533.659      -8.258    -325.561
  O     -532.409      -8.164    -324.885
  C     -533.641      -7.411    -326.839
  O     -533.768      -6.004    -326.526
  C     -532.349      -7.522    -327.630
  O     -532.238      -8.764    -328.305
  C     -532.466      -6.303    -328.541
  O     -533.308      -6.586    -329.663
  C     -533.131      -5.279    -327.601
  N     -532.190      -4.287    -327.096
  C     -531.677      -3.382    -328.030
  O     -531.959      -3.494    -329.225
  N     -530.853      -2.384    -327.587
  C     -530.470      -2.363    -326.351
  N     -529.697      -1.310    -325.956
  C     -530.856      -3.391    -325.366
  C     -531.729      -4.307    -325.796
  O     -533.046      -9.517    -322.748
  O     -530.931      -8.110    -322.866
  H     -530.646      -8.935    -322.416
  H     -533.306      -5.789    -330.223
  H     -530.453      -3.375    -324.364
  H     -532.089      -5.095    -325.144
  H     -533.940      -4.756    -328.127
  H     -531.494      -5.988    -328.941
  H     -531.484      -7.397    -326.963
  H     -534.498      -7.707    -327.459
  H     -529.467      -0.615    -326.651
  H     -534.451      -7.899    -324.896
  H     -529.616      -1.026    -324.983
  H     -533.859      -9.306    -325.803
  P     -531.085      -8.890    -329.408
  C     -529.921     -11.191    -329.134
  O     -530.934     -10.449    -329.774
  O     -529.747      -8.573    -328.581
  O     -531.241      -7.972    -330.576
  H     -529.119      -8.073    -329.148
  H     -530.168     -12.255    -329.200
  H     -529.833     -10.923    -328.078
  H     -528.969     -11.019    -329.634
  H     -534.123      -5.901    -321.250
  H     -532.981      -7.109    -320.713
  H     -534.514      -7.599    -321.393

 3  4  5  6  7  8  9  10  11  12  13  24  27  28  29  30  32 0
 6-311+G(2d,p)
 ****
 34  35 0
 6-311+G(2d,p)
 ****
 1  2  14  15  16  17  18  19  20  21  22  23  25  26 0
 3-21G
 ****
 31  33  36  37  38  39  40  41  42  43  44  45  46 0
 3-21G
 ****


