%nproc=1
%NoSave
%Mem=1900MB
#P OB98/GEN NMR

erre ene a

0 1
  C     -921.821     858.716     109.462
  O     -921.852     857.774     108.389
  P     -922.386     856.271     108.681
  C     -924.955     856.441     108.173
  O     -923.662     855.984     107.763
  C     -925.937     856.441     107.000
  O     -925.482     857.300     105.942
  C     -926.105     855.066     106.335
  O     -926.947     854.205     107.140
  C     -926.739     855.454     105.013
  O     -928.149     855.636     105.127
  C     -926.021     856.788     104.696
  N     -924.973     856.623     103.680
  C     -925.392     856.342     102.416
  O     -926.570     856.104     102.117
  N     -924.421     856.234     101.440
  C     -923.055     856.339     101.679
  O     -922.215     856.211     100.784
  C     -922.656     856.600     103.072
  C     -923.622     856.708     103.998
  O     -923.068     856.432     110.123
  O     -921.354     855.210     108.691
  H     -928.523     854.864     105.565
  H     -923.019     855.590     110.596
  H     -924.706     856.021     100.511
  H     -921.611     856.667     103.298
  H     -923.375     856.909     105.046
  H     -926.746     857.540     104.348
  H     -926.570     854.662     104.230
  H     -925.136     854.599     106.168
  H     -926.909     856.820     107.358
  H     -924.880     857.471     108.559
  H     -925.305     855.793     108.997
  P     -926.470     852.675     107.242
  C     -926.415     852.795     109.871
  O     -926.948     852.196     108.717
  O     -924.874     852.852     107.396
  O     -926.901     851.836     106.098
  H     -924.666     853.660     107.849
  H     -926.193     853.858     109.706
  H     -925.526     852.267     110.183
  H     -927.165     852.727     110.678
  H     -921.446     859.652     109.104
  H     -921.184     858.350     110.240
  H     -922.810     858.852     109.846

 3  4  5  6  7  8  9  10  11  12  13  23  28  29  30  31  32 0
 6-311+G(2d,p)
 ****
 33  34 0
 6-311+G(2d,p)
 ****
 1  2  14  15  16  17  18  19  20  21  22  24  25  26 0
 3-21G
 ****
 27  35  36  37  38  39  40  41  42  43  44  45 0
 3-21G
 ****


