%nproc=1
%NoSave
%Mem=1900MB
#P OB98/GEN NMR

erre ene a

0 1
  C     -484.040     238.068     105.173
  O     -483.513     238.981     104.222
  P     -481.982     238.832     103.789
  C     -480.016     240.530     103.612
  O     -481.202     240.148     104.289
  C     -479.925     242.053     103.518
  O     -481.158     242.578     102.939
  C     -479.718     242.754     104.866
  O     -478.907     243.914     104.637
  C     -481.127     243.183     105.234
  O     -481.164     244.218     106.204
  C     -481.654     243.582     103.853
  N     -483.111     243.683     103.804
  C     -483.690     244.827     104.340
  O     -483.053     245.750     104.847
  N     -485.062     244.861     104.334
  C     -485.886     243.847     103.941
  O     -487.106     243.896     104.073
  C     -485.218     242.662     103.382
  C     -483.883     242.636     103.337
  O     -482.030     238.998     102.198
  O     -481.336     237.545     104.199
  H     -482.097     244.357     106.448
  H     -481.988     238.127     101.766
  H     -485.498     245.686     104.708
  H     -485.846     241.850     103.038
  H     -483.364     241.765     102.950
  H     -481.217     244.537     103.542
  H     -481.679     242.323     105.638
  H     -479.260     242.116     105.629
  H     -479.109     242.313     102.827
  H     -480.024     240.109     102.606
  H     -479.145     240.119     104.139
  P     -478.100     244.529     105.887
  C     -478.707     246.278     107.733
  O     -479.156     245.373     106.744
  O     -477.221     245.646     105.150
  O     -477.286     243.518     106.632
  H     -477.725     246.147     104.487
  H     -477.763     246.751     107.447
  H     -478.571     245.743     108.673
  H     -479.463     247.052     107.874
  H     -485.069     238.298     105.356
  H     -483.489     238.147     106.087
  H     -483.959     237.071     104.793

 3  4  5  6  7  8  9  10  11  12  13  23  28  29  30  31  32 0
 6-311+G(2d,p)
 ****
 33  34 0
 6-311+G(2d,p)
 ****
 1  2  14  15  16  17  18  19  20  21  22  24  25  26 0
 3-21G
 ****
 27  35  36  37  38  39  40  41  42  43  44  45 0
 3-21G
 ****


