%nproc=1
%NoSave
%Mem=1900MB
#P OB98/GEN NMR

erre ene a

0 1
  C       12.541      31.571    -116.999
  O       11.314      31.059    -116.518
  P       10.305      32.016    -115.725
  C       10.539      33.588    -113.701
  O       10.976      32.374    -114.313
  C       10.498      33.429    -112.180
  O        9.688      32.288    -111.814
  C       11.861      33.181    -111.548
  O       12.607      34.381    -111.471
  C       11.457      32.598    -110.199
  O       11.111      33.647    -109.277
  C       10.210      31.775    -110.568
  N        8.154      27.113    -110.260
  C        7.676      28.333    -109.927
  N        8.305      29.528    -110.005
  C        9.560      29.373    -110.459
  C       10.194      28.191    -110.806
  C        9.426      27.014    -110.718
  N        9.882      25.775    -111.117
  N       11.496      28.440    -111.204
  C       11.640      29.748    -111.084
  N       10.481      30.359    -110.702
  O        8.891      31.531    -115.648
  O       10.381      33.401    -116.526
  H       10.653      33.234    -108.521
  H        9.498      33.625    -116.877
  H        6.654      28.353    -109.556
  H       12.555      30.292    -111.275
  H        9.412      31.886    -109.823
  H       12.254      32.009    -109.734
  H       12.409      32.417    -112.118
  H       10.031      34.330    -111.755
  H        9.539      33.822    -114.077
  H        9.203      25.028    -111.146
  H       10.693      25.732    -111.729
  H       11.218      34.399    -113.980
  P       14.194      34.346    -111.697
  C       16.183      33.147    -110.606
  O       14.821      33.511    -110.482
  O       14.839      35.668    -111.970
  O       14.376      33.348    -112.940
  H       15.154      33.617    -113.467
  H       16.272      32.290    -111.281
  H       16.565      32.865    -109.621
  H       16.780      33.980    -110.996
  H       13.080      30.794    -117.499
  H       13.122      31.936    -116.178
  H       12.350      32.371    -117.684

 3  4  5  6  7  8  9  10  11  12  22  25  29  30  31  32 0
 6-311+G(2d,p)
 ****
 33  36  37 0
 6-311+G(2d,p)
 ****
 1  2  13  14  15  16  17  18  19  20  21  23  24  26 0
 3-21G
 ****
 27  28  34  35  38  39  40  41  42  43  44  45  46  47  48 0
 3-21G
 ****


