%nproc=1
%NoSave
%Mem=1900MB
#P OB98/GEN NMR

erre ene a

0 1
  C      -77.446      40.351     -46.131
  O      -78.718      40.533     -45.546
  H      -77.381      39.328     -46.509
  H      -76.659      40.498     -45.387
  H      -77.304      41.041     -46.967
  P      -79.069      41.963     -44.908
  C      -78.814      42.099     -42.333
  O      -78.153      42.038     -43.587
  C      -79.406      40.737     -41.982
  O      -78.476      39.671     -42.269
  C      -79.757      40.551     -40.510
  O      -80.916      41.258     -40.104
  C      -79.956      39.047     -40.477
  O      -81.224      38.714     -41.071
  C      -78.780      38.574     -41.362
  N      -77.598      38.212     -40.581
  C      -77.374      36.845     -40.379
  O      -78.150      36.008     -40.836
  N      -76.289      36.454     -39.632
  C      -75.510      37.351     -39.110
  N      -74.454      36.908     -38.373
  C      -75.719      38.801     -39.281
  C      -76.767      39.158     -40.020
  O      -80.521      42.249     -44.699
  O      -78.341      43.019     -45.864
  H      -81.897      39.259     -40.625
  H      -78.536      43.924     -45.518
  H      -75.058      39.508     -38.802
  H      -76.991      40.206     -40.186
  H      -79.074      37.715     -41.978
  H      -79.954      38.633     -39.468
  H      -78.903      40.802     -39.870
  H      -80.282      40.584     -42.627
  H      -74.336      35.909     -38.273
  H      -79.595      42.863     -42.395
  H      -73.841      37.535     -37.869
  H      -78.104      42.379     -41.549
  P      -80.896      41.903     -38.631
  C      -82.514      40.870     -36.860
  O      -81.326      40.735     -37.624
  O      -82.155      42.886     -38.652
  O      -79.626      42.600     -38.260
  H      -81.874      43.806     -38.823
  H      -82.644      40.003     -36.247
  H      -83.352      40.971     -37.518
  H      -82.442      41.738     -36.239

 6  7  8  9  10  11  12  13  14  15  16  26  30  31  32  33  35 0
 6-311+G(2d,p)
 ****
 37  38 0
 6-311+G(2d,p)
 ****
 1  2  3  4  5  17  18  19  20  21  22  23  24  25 0
 3-21G
 ****
 27  28  29  34  36  39  40  41  42  43  44  45  46 0
 3-21G
 ****


