%nproc=1
%NoSave
%Mem=1900MB
#P OB98/GEN NMR

erre ene a

0 1
  C      287.092      68.266     385.918
  O      285.820      68.550     386.471
  P      285.059      69.926     386.160
  C      282.969      69.031     384.953
  O      283.492      69.565     386.162
  C      281.485      68.690     385.089
  O      281.339      67.409     385.766
  C      280.657      69.722     385.873
  O      279.356      69.733     385.276
  C      280.606      69.115     387.262
  O      279.548      69.644     388.055
  C      280.489      67.623     386.916
  N      280.864      66.772     388.042
  C      279.822      66.108     388.707
  O      278.651      66.318     388.382
  N      280.129      65.272     389.752
  C      281.354      65.187     390.163
  N      281.596      64.338     391.201
  C      282.460      65.966     389.578
  C      282.153      66.717     388.521
  O      285.534      70.660     384.954
  O      285.216      70.759     387.518
  H      278.767      69.782     387.476
  H      286.130      71.143     387.584
  H      283.458      65.904     389.993
  H      282.899      67.323     388.023
  H      279.464      67.374     386.618
  H      281.547      69.313     387.787
  H      281.095      70.727     385.866
  H      281.071      68.568     384.081
  H      280.811      63.813     391.567
  H      283.522      68.112     384.723
  H      282.523      64.138     391.546
  H      283.133      69.736     384.129
  P      278.641      71.107     384.864
  C      277.156      69.735     383.288
  O      277.186      70.724     384.303
  O      279.445      71.997     383.972
  O      278.311      71.823     386.261
  H      278.109      72.764     386.106
  H      276.132      69.362     383.189
  H      277.816      68.897     383.538
  H      277.468      70.173     382.337
  H      287.418      67.303     386.250
  H      287.793      69.009     386.236
  H      287.026      68.272     384.850

 3  4  5  6  7  8  9  10  11  12  13  23  27  28  29  30  32 0
 6-311+G(2d,p)
 ****
 34  35 0
 6-311+G(2d,p)
 ****
 1  2  14  15  16  17  18  19  20  21  22  24  25  26 0
 3-21G
 ****
 31  33  36  37  38  39  40  41  42  43  44  45  46 0
 3-21G
 ****


