%nproc=1
%NoSave
%Mem=1900MB
#P OB98/GEN NMR

erre ene a

0 1
  C       46.754    -828.108    -545.735
  O       48.004    -828.455    -545.133
  P       47.997    -829.108    -543.671
  C       47.212    -831.548    -544.335
  O       46.983    -830.339    -543.643
  C       47.953    -832.534    -543.419
  O       47.059    -833.029    -542.391
  C       48.509    -833.754    -544.158
  O       49.795    -833.508    -544.689
  C       48.504    -834.801    -543.060
  O       49.630    -834.613    -542.173
  C       47.178    -834.483    -542.325
  N       45.928    -835.073    -542.846
  C       45.022    -835.657    -541.956
  O       45.186    -835.737    -540.740
  N       43.875    -836.171    -542.516
  C       43.460    -836.013    -543.815
  O       42.407    -836.449    -544.234
  C       44.387    -835.267    -544.661
  C       45.553    -834.850    -544.168
  O       47.285    -828.008    -542.762
  O       49.358    -829.470    -543.142
  H       50.437    -834.657    -542.726
  H       47.911    -827.658    -542.096
  H       43.249    -836.667    -541.895
  H       44.078    -835.080    -545.692
  H       46.236    -834.289    -544.792
  H       47.248    -834.758    -541.266
  H       48.611    -835.809    -543.475
  H       47.811    -834.073    -544.932
  H       48.772    -831.987    -542.915
  H       47.802    -831.378    -545.243
  H       46.257    -831.978    -544.660
  P       49.938    -833.209    -546.261
  C       50.233    -830.657    -546.059
  O       49.382    -831.714    -546.470
  O       49.405    -834.245    -547.187
  O       51.525    -833.007    -546.442
  H       51.953    -833.838    -546.760
  H       49.808    -829.706    -546.408
  H       51.233    -830.779    -546.501
  H       50.303    -830.639    -544.970
  H       46.929    -827.686    -546.703
  H       46.249    -827.393    -545.120
  H       46.149    -828.985    -545.832

 3  4  5  6  7  8  9  10  11  12  13  23  28  29  30  31  32 0
 6-311+G(2d,p)
 ****
 33  34 0
 6-311+G(2d,p)
 ****
 1  2  14  15  16  17  18  19  20  21  22  24  25  26  27 0
 3-21G
 ****
 35  36  37  38  39  40  41  42  43  44  45 0
 3-21G
 ****


