%nproc=1
%NoSave
%Mem=1900MB
#P OB98/GEN NMR

erre ene a

0 1
  C      152.037     643.094    -294.011
  O      151.851     643.556    -292.668
  P      152.976     643.251    -291.560
  C      154.239     645.504    -291.750
  O      154.295     644.090    -291.913
  C      155.648     646.060    -291.500
  O      156.444     646.043    -292.720
  C      155.637     647.525    -291.065
  O      155.130     647.788    -289.780
  C      157.062     647.955    -291.365
  O      157.951     647.590    -290.301
  C      157.375     647.141    -292.639
  N      157.336     647.969    -293.851
  C      158.494     648.010    -294.615
  O      159.529     647.428    -294.291
  N      158.438     648.765    -295.752
  C      157.366     649.509    -296.176
  O      157.378     650.194    -297.187
  C      156.175     649.448    -295.312
  C      156.209     648.701    -294.206
  O      153.194     641.809    -291.241
  O      152.415     644.026    -290.270
  H      157.946     646.617    -290.234
  H      152.572     643.461    -289.489
  H      159.270     648.804    -296.320
  H      155.311     650.029    -295.607
  H      155.340     648.641    -293.556
  H      158.381     646.700    -292.578
  H      157.135     649.044    -291.482
  H      154.984     648.076    -291.757
  H      156.151     645.428    -290.768
  H      153.583     645.752    -290.920
  H      153.790     645.943    -292.646
  P      154.247     649.091    -289.429
  C      152.094     648.015    -290.405
  O      152.979     649.111    -290.413
  O      154.974     650.383    -289.224
  O      153.570     648.654    -288.044
  H      153.459     649.459    -287.489
  H      151.308     648.189    -291.139
  H      151.641     647.885    -289.422
  H      152.629     647.097    -290.683
  H      151.197     643.384    -294.607
  H      152.124     642.028    -294.012
  H      152.928     643.525    -294.416

 3  4  5  6  7  8  9  10  11  12  13  23  28  29  30  31  32 0
 6-311+G(2d,p)
 ****
 33  34 0
 6-311+G(2d,p)
 ****
 1  2  14  15  16  17  18  19  20  21  22  24  25  26  27 0
 3-21G
 ****
 35  36  37  38  39  40  41  42  43  44  45 0
 3-21G
 ****


