%nproc=1
%NoSave
%Mem=1900MB
#P OB98/GEN NMR

erre ene a

0 1
  C     -394.355    -454.562    -197.012
  O     -393.364    -454.717    -198.003
  H     -393.868    -454.437    -196.042
  H     -394.991    -455.453    -196.970
  H     -394.971    -453.677    -197.212
  P     -393.805    -454.786    -199.542
  C     -391.383    -454.231    -200.231
  O     -392.484    -455.117    -200.396
  C     -390.360    -454.471    -201.342
  O     -389.746    -455.765    -201.187
  C     -390.956    -454.454    -202.744
  O     -391.230    -453.130    -203.162
  C     -389.853    -455.161    -203.522
  O     -388.768    -454.266    -203.808
  C     -389.408    -456.246    -202.511
  N     -390.023    -457.553    -202.775
  C     -389.516    -458.250    -203.861
  O     -388.610    -457.826    -204.583
  N     -390.116    -459.457    -204.128
  C     -391.210    -459.960    -203.484
  O     -391.854    -460.922    -203.885
  C     -391.651    -459.211    -202.291
  C     -391.052    -458.051    -202.008
  O     -394.602    -453.626    -200.039
  O     -394.639    -456.151    -199.630
  H     -395.593    -455.950    -199.626
  H     -388.664    -453.689    -203.024
  H     -389.793    -459.953    -204.948
  H     -392.475    -459.612    -201.715
  H     -391.382    -457.468    -201.156
  H     -388.317    -456.368    -202.533
  H     -390.202    -455.553    -204.481
  H     -391.860    -455.069    -202.774
  H     -389.571    -453.707    -201.245
  H     -390.919    -454.426    -199.260
  H     -391.749    -453.202    -200.257
  P     -392.495    -452.798    -204.083
  C     -392.771    -450.523    -202.943
  O     -392.639    -451.204    -204.177
  O     -393.753    -453.513    -203.713
  O     -392.022    -453.207    -205.565
  H     -392.676    -453.823    -205.953
  H     -392.859    -449.472    -203.123
  H     -391.908    -450.710    -202.338
  H     -393.645    -450.872    -202.435

 6  7  8  9  10  11  12  13  14  15  16  27  31  32  33  34  35 0
 6-311+G(2d,p)
 ****
 36  37 0
 6-311+G(2d,p)
 ****
 1  2  3  4  5  17  18  19  20  21  22  23  24  25 0
 3-21G
 ****
 26  28  29  30  38  39  40  41  42  43  44  45 0
 3-21G
 ****


