%nproc=1
%NoSave
%Mem=1900MB
#P OB98/GEN NMR

erre ene a

0 1
  C       -0.909    -113.407     120.064
  O        0.446    -113.271     119.620
  P        1.705    -113.467     120.594
  C        1.886    -116.030     120.366
  O        1.651    -114.930     121.241
  C        3.335    -116.521     120.452
  O        3.573    -117.176     121.712
  C        3.730    -117.535     119.387
  O        3.941    -116.908     118.135
  C        4.978    -118.148     120.015
  O        6.133    -117.327     119.776
  C        4.610    -118.156     121.512
  N        4.201    -119.473     121.981
  C        4.262    -119.693     123.359
  O        4.700    -118.822     124.111
  N        3.848    -120.909     123.849
  C        3.480    -121.843     123.029
  N        3.074    -123.022     123.571
  C        3.488    -121.682     121.563
  C        3.854    -120.483     121.115
  O        1.879    -112.367     121.591
  O        2.976    -113.539     119.620
  H        5.999    -116.506     120.288
  H        3.754    -113.176     120.082
  H        3.200    -122.494     120.914
  H        3.879    -120.276     120.051
  H        5.463    -117.820     122.115
  H        5.203    -119.142     119.617
  H        2.952    -118.304     119.301
  H        3.990    -115.641     120.403
  H        3.074    -123.099     124.581
  H        1.676    -115.703     119.341
  H        2.767    -123.812     123.023
  H        1.195    -116.839     120.624
  P        3.358    -117.576     116.802
  C        1.234    -116.199     116.380
  O        1.764    -117.427     116.843
  O        3.860    -118.947     116.493
  O        3.776    -116.543     115.649
  H        3.926    -117.037     114.822
  H        0.194    -116.357     116.080
  H        1.798    -115.825     115.521
  H        1.263    -115.463     117.186
  H       -1.573    -113.232     119.243
  H       -1.104    -112.694     120.838
  H       -1.063    -114.396     120.443

 3  4  5  6  7  8  9  10  11  12  13  23  27  28  29  30  32 0
 6-311+G(2d,p)
 ****
 34  35 0
 6-311+G(2d,p)
 ****
 1  2  14  15  16  17  18  19  20  21  22  24  25  26 0
 3-21G
 ****
 31  33  36  37  38  39  40  41  42  43  44  45  46 0
 3-21G
 ****


