%nproc=1
%NoSave
%Mem=1900MB
#P OB98/GEN NMR

erre ene a

0 1
  C      138.718    -204.092    -211.642
  O      139.402    -205.135    -210.981
  H      139.450    -203.473    -212.165
  H      138.184    -203.467    -210.922
  H      138.016    -204.501    -212.375
  P      138.561    -206.159    -210.078
  C      139.798    -208.421    -210.208
  O      139.609    -207.214    -209.476
  C      140.714    -208.172    -211.411
  O      141.936    -207.567    -210.918
  C      141.080    -209.467    -212.150
  O      140.817    -209.402    -213.549
  C      142.514    -209.730    -211.702
  O      143.280    -210.487    -212.616
  C      143.053    -208.325    -211.420
  N      144.161    -208.298    -210.468
  C      145.195    -207.399    -210.716
  O      145.242    -206.620    -211.663
  N      146.222    -207.411    -209.806
  C      146.319    -208.219    -208.711
  O      147.261    -208.183    -207.930
  C      145.210    -209.168    -208.520
  C      144.200    -209.165    -209.391
  O      137.369    -206.770    -210.738
  O      138.144    -205.295    -208.797
  H      142.722    -211.236    -212.910
  H      137.198    -205.060    -208.855
  H      146.968    -206.753    -209.964
  H      145.261    -209.834    -207.670
  H      143.364    -209.850    -209.280
  H      143.398    -207.853    -212.340
  H      142.483    -210.293    -210.763
  H      140.448    -210.299    -211.814
  H      140.235    -207.449    -212.077
  H      138.816    -208.767    -210.543
  H      140.241    -209.181    -209.554
  P      139.397    -209.664    -214.228
  C      139.983    -208.678    -216.596
  O      139.606    -209.798    -215.806
  O      138.282    -208.785    -213.769
  O      139.037    -211.173    -213.787
  H      138.060    -211.209    -213.709
  H      140.070    -208.977    -217.620
  H      140.924    -208.300    -216.253
  H      139.239    -207.914    -216.509

 6  7  8  9  10  11  12  13  14  15  16  26  31  32  33  34  35 0
 6-311+G(2d,p)
 ****
 36  37 0
 6-311+G(2d,p)
 ****
 1  2  3  4  5  17  18  19  20  21  22  23  24  25 0
 3-21G
 ****
 27  28  29  30  38  39  40  41  42  43  44  45 0
 3-21G
 ****


