%nproc=1
%NoSave
%Mem=1900MB
#P OB98/GEN NMR

erre ene a

0 1
  C      271.753     110.531    -244.073
  O      272.013     109.834    -242.872
  P      270.967     108.834    -242.188
  C      272.276     106.610    -242.419
  O      271.171     107.380    -242.840
  C      271.929     105.609    -241.306
  O      270.804     104.804    -241.718
  C      273.095     104.646    -241.074
  O      274.182     105.009    -240.243
  C      272.441     103.313    -240.719
  O      272.404     103.081    -239.309
  C      271.026     103.451    -241.271
  N      269.732      98.723    -242.600
  C      269.648      99.343    -241.366
  N      269.361      98.519    -240.320
  N      269.849     100.611    -241.173
  C      270.213     101.280    -242.298
  C      270.324     100.795    -243.572
  C      270.057      99.382    -243.788
  O      270.209      98.789    -244.845
  N      270.804     101.735    -244.447
  C      271.016     102.791    -243.694
  N      270.724     102.552    -242.374
  O      269.580     109.350    -241.981
  O      271.627     108.640    -240.728
  H      272.067     102.178    -239.161
  H      270.904     108.535    -240.083
  H      269.647      97.719    -242.682
  H      271.431     103.733    -244.045
  H      270.283     103.249    -240.489
  H      272.998     102.476    -241.157
  H      269.348      97.521    -240.415
  H      273.563     104.476    -242.051
  H      269.457      98.905    -239.387
  H      271.601     106.133    -240.407
  H      273.058     107.296    -242.092
  H      272.682     106.048    -243.272
  P      275.686     105.305    -240.713
  C      275.281     107.790    -241.149
  O      275.672     106.548    -241.712
  O      276.039     104.074    -241.677
  O      276.677     105.394    -239.597
  H      277.007     103.959    -241.732
  H      275.009     108.486    -241.948
  H      276.116     108.217    -240.570
  H      274.414     107.673    -240.481
  H      272.600     111.134    -244.326
  H      270.896     111.158    -243.943
  H      271.566     109.830    -244.859

 3  4  5  6  7  8  9  10  11  12  23  26  30  31 0
 6-311+G(2d,p)
 ****
 33  35  36  37  38 0
 6-311+G(2d,p)
 ****
 1  2  13  14  15  16  17  18  19  20  21  22  24  25 0
 3-21G
 ****
 27  28  29  32  34  39  40  41  42  43  44  45  46  47  48  49 0
 3-21G
 ****


