%nproc=1
%NoSave
%Mem=1900MB
#P OB98/GEN NMR

erre ene a

0 1
  C       -7.729    -165.834     172.095
  O       -8.553    -166.513     173.017
  H       -8.255    -165.768     171.140
  H       -6.803    -166.397     171.948
  H       -7.494    -164.823     172.437
  P       -8.249    -166.358     174.579
  C       -7.928    -168.857     175.141
  O       -7.310    -167.581     175.030
  C       -6.907    -169.956     175.438
  O       -5.894    -169.968     174.408
  C       -6.182    -169.739     176.769
  O       -6.850    -170.279     177.896
  C       -4.855    -170.455     176.523
  O       -4.941    -171.847     176.868
  C       -4.635    -170.287     175.016
  N        0.294    -169.110     174.341
  C       -0.257    -170.272     174.848
  N        0.619    -171.216     175.254
  N       -1.545    -170.470     174.952
  C       -2.292    -169.399     174.600
  C       -1.857    -168.189     174.105
  C       -0.433    -168.006     173.921
  O        0.104    -167.004     173.463
  N       -2.904    -167.324     173.894
  C       -3.954    -167.980     174.343
  N       -3.645    -169.270     174.705
  O       -9.650    -166.728     175.269
  O       -7.789    -165.001     175.016
  H       -4.094    -172.270     176.627
  H       -9.749    -166.225     176.097
  H        1.291    -169.026     174.257
  H       -4.964    -167.588     174.385
  H       -4.287    -171.221     174.558
  H       -4.063    -170.025     177.142
  H        1.616    -171.082     175.275
  H       -5.973    -168.677     176.927
  H        0.261    -172.000     175.803
  H       -7.407    -170.932     175.407
  H       -8.417    -169.050     174.185
  H       -8.706    -168.839     175.910
  P       -6.309    -170.012     179.376
  C       -6.137    -172.517     180.143
  O       -5.493    -171.297     179.854
  O       -7.639    -170.069     180.263
  O       -5.563    -168.732     179.566
  H       -7.964    -169.169     180.453
  H       -5.410    -173.242     180.444
  H       -6.648    -172.866     179.270
  H       -6.842    -172.370     180.934

 6  7  8  9  10  11  12  13  14  15  26  29  33  34 0
 6-311+G(2d,p)
 ****
 36  38  39  40  41 0
 6-311+G(2d,p)
 ****
 1  2  3  4  5  16  17  18  19  20  21  22  23  24  25 0
 3-21G
 ****
 27  28  30  31  32  35  37  42  43  44  45  46  47 0
 3-21G
 ****
 48  49 0
 3-21G
 ****


