%nproc=1
%NoSave
%Mem=1900MB
#P OB98/GEN NMR

erre ene a

0 1
  C     -121.044     311.377    -680.581
  O     -121.480     310.276    -681.381
  P     -121.528     310.469    -682.969
  C     -119.775     308.589    -683.612
  O     -121.082     309.118    -683.697
  C     -119.859     307.047    -683.532
  O     -120.104     306.632    -682.169
  C     -120.975     306.456    -684.404
  O     -120.554     306.245    -685.732
  C     -121.308     305.184    -683.646
  O     -120.322     304.170    -683.925
  C     -121.188     305.660    -682.177
  N     -122.390     306.281    -681.557
  C     -123.607     305.595    -681.549
  O     -123.771     304.488    -682.041
  N     -124.644     306.241    -680.928
  C     -124.576     307.378    -680.189
  O     -125.525     307.881    -679.607
  C     -123.236     307.972    -680.092
  C     -122.225     307.430    -680.776
  O     -120.318     311.476    -683.273
  O     -122.839     310.989    -683.494
  H     -120.582     303.742    -684.761
  H     -120.661     312.327    -683.624
  H     -125.542     305.790    -680.984
  H     -123.113     308.863    -679.471
  H     -121.228     307.865    -680.714
  H     -120.895     304.830    -681.520
  H     -122.262     304.778    -683.964
  H     -121.856     307.109    -684.372
  H     -118.890     306.635    -683.844
  H     -119.248     308.984    -682.733
  H     -119.199     308.892    -684.488
  P     -121.615     305.819    -686.851
  C     -121.788     308.025    -688.149
  O     -121.271     306.704    -688.147
  O     -123.053     305.820    -686.428
  O     -121.127     304.350    -687.293
  H     -121.634     303.651    -686.809
  H     -121.354     308.570    -688.997
  H     -121.529     308.549    -687.221
  H     -122.875     308.002    -688.265
  H     -121.066     311.098    -679.548
  H     -121.694     312.212    -680.739
  H     -120.046     311.645    -680.857

 3  4  5  6  7  8  9  10  11  12  13  23  28  29  30  31  32 0
 6-311+G(2d,p)
 ****
 33  34 0
 6-311+G(2d,p)
 ****
 1  2  14  15  16  17  18  19  20  21  22  24  25  26  27 0
 3-21G
 ****
 35  36  37  38  39  40  41  42  43  44  45 0
 3-21G
 ****


