%nproc=1
%NoSave
%Mem=1900MB
#P OB98/GEN NMR

erre ene a

0 1
  C     -100.917      93.479      63.748
  O     -100.435      94.754      63.364
  H     -100.666      93.310      64.799
  H     -100.450      92.690      63.151
  H     -102.003      93.435      63.634
  P     -100.544      95.171      61.821
  C     -102.779      96.405      62.240
  O     -102.108      95.363      61.537
  C     -104.222      96.517      61.755
  O     -104.903      95.257      61.919
  C     -105.039      97.536      62.536
  O     -104.711      98.854      62.146
  C     -106.448      97.086      62.205
  O     -106.856      97.555      60.913
  C     -106.291      95.548      62.209
  N     -106.700      94.942      63.472
  C     -108.074      94.943      63.736
  O     -108.864      95.427      62.928
  N     -108.510      94.411      64.924
  C     -107.660      93.909      65.763
  N     -108.158      93.399      66.920
  C     -106.206      93.877      65.516
  C     -105.799      94.409      64.365
  O      -99.841      94.292      60.833
  O      -99.983      96.671      61.797
  H     -106.199      97.200      60.281
  H      -99.019      96.672      61.649
  H     -105.534      93.444      66.242
  H     -104.746      94.424      64.104
  H     -106.885      95.098      61.404
  H     -107.168      97.456      62.933
  H     -104.884      97.400      63.611
  H     -104.210      96.757      60.685
  H     -109.163      93.452      67.052
  H     -102.238      97.333      62.036
  H     -107.604      92.907      67.604
  H     -102.756      96.219      63.319
  P     -103.546      99.661      62.896
  C     -102.237     100.012      60.703
  O     -102.228      99.434      62.005
  O     -103.396      99.360      64.350
  O     -103.917     101.191      62.598
  H     -104.689     101.486      63.139
  H     -101.313      99.795      60.210
  H     -102.357     101.072      60.784
  H     -103.048      99.603      60.137

 6  7  8  9  10  11  12  13  14  15  16  26  30  31  32  33  35 0
 6-311+G(2d,p)
 ****
 37  38 0
 6-311+G(2d,p)
 ****
 1  2  3  4  5  17  18  19  20  21  22  23  24  25 0
 3-21G
 ****
 27  28  29  34  36  39  40  41  42  43  44  45  46 0
 3-21G
 ****


