%nproc=1
%NoSave
%Mem=1900MB
#P OB98/GEN NMR

erre ene a

0 1
  C      149.264    -182.767     -71.968
  O      148.892    -183.820     -72.858
  P      147.339    -184.229     -72.910
  C      147.560    -186.368     -71.421
  O      147.054    -185.050     -71.559
  C      147.415    -186.854     -69.972
  O      147.811    -188.261     -69.887
  C      148.252    -186.073     -68.952
  O      147.466    -185.987     -67.754
  C      149.453    -186.977     -68.729
  O      150.099    -186.710     -67.490
  C      148.793    -188.356     -68.836
  N      149.758    -189.426     -69.092
  C      150.280    -190.085     -67.986
  O      150.031    -189.751     -66.829
  N      151.148    -191.109     -68.256
  C      151.591    -191.481     -69.497
  O      152.367    -192.410     -69.678
  C      151.087    -190.673     -70.620
  C      150.209    -189.696     -70.369
  O      147.339    -185.339     -74.058
  O      146.438    -183.059     -73.154
  H      148.134    -185.901     -74.054
  H      149.420    -186.544     -66.806
  H      151.514    -191.625     -67.468
  H      151.462    -190.902     -71.612
  H      149.841    -189.071     -71.173
  H      148.258    -188.594     -67.908
  H      150.179    -186.832     -69.536
  H      148.511    -185.072     -69.297
  H      146.355    -186.804     -69.704
  H      148.618    -186.390     -71.696
  H      147.035    -187.032     -72.119
  P      146.585    -184.660     -67.516
  C      148.498    -183.064     -66.701
  O      147.564    -183.407     -67.704
  O      146.395    -184.730     -65.925
  O      145.288    -184.620     -68.254
  H      147.223    -184.917     -65.449
  H      149.210    -182.347     -67.111
  H      149.045    -183.944     -66.352
  H      147.977    -182.592     -65.856
  H      150.319    -182.600     -72.034
  H      149.009    -183.040     -70.966
  H      148.743    -181.872     -72.237

 3  4  5  6  7  8  9  10  11  12  13  24  28  29  30  31  32 0
 6-311+G(2d,p)
 ****
 33  34 0
 6-311+G(2d,p)
 ****
 1  2  14  15  16  17  18  19  20  21  22  23  25  26  27 0
 3-21G
 ****
 35  36  37  38  39  40  41  42  43  44  45 0
 3-21G
 ****


