%nproc=1
%NoSave
%Mem=1900MB
#P OB98/GEN NMR

erre ene a

0 1
  C      233.961    -214.973    -682.861
  O      233.418    -215.754    -683.907
  P      234.226    -215.801    -685.295
  C      235.516    -214.020    -686.692
  O      234.603    -214.274    -685.629
  C      234.981    -212.938    -687.612
  O      234.514    -211.815    -686.840
  C      236.009    -212.369    -688.575
  O      236.227    -213.254    -689.655
  C      235.356    -211.053    -688.972
  O      234.456    -211.238    -690.075
  C      234.588    -210.652    -687.694
  N      235.196    -209.526    -687.002
  C      235.194    -208.314    -687.710
  O      234.722    -208.256    -688.842
  N      235.773    -207.215    -687.121
  C      236.304    -207.317    -685.943
  N      236.855    -206.194    -685.409
  C      236.344    -208.574    -685.181
  C      235.784    -209.639    -685.770
  O      233.092    -216.150    -686.368
  O      235.359    -216.771    -685.331
  H      234.315    -210.342    -690.453
  H      233.473    -216.599    -687.141
  H      236.798    -208.612    -684.198
  H      235.770    -210.607    -685.274
  H      233.554    -210.388    -687.941
  H      236.097    -210.310    -689.290
  H      236.953    -212.170    -688.049
  H      234.122    -213.351    -688.166
  H      236.822    -205.344    -685.961
  H      235.661    -214.938    -687.266
  H      237.278    -206.163    -684.494
  H      236.481    -213.729    -686.262
  P      237.620    -213.146    -690.435
  C      238.657    -211.415    -692.015
  O      237.503    -211.812    -691.311
  O      237.472    -214.294    -691.550
  O      238.870    -213.314    -689.633
  H      238.302    -214.395    -692.042
  H      238.398    -210.591    -692.687
  H      239.046    -212.249    -692.616
  H      239.423    -211.069    -691.317
  H      233.324    -215.033    -682.003
  H      234.036    -213.954    -683.179
  H      234.934    -215.341    -682.609

 3  4  5  6  7  8  9  10  11  12  13  21  23  27  28  29  30  32 0
 6-311+G(2d,p)
 ****
 34  35 0
 6-311+G(2d,p)
 ****
 1  2  14  15  16  17  18  19  20  22  24  25  26 0
 3-21G
 ****
 31  33  36  37  38  39  40  41  42  43  44  45  46 0
 3-21G
 ****


