%nproc=1
%NoSave
%Mem=1900MB
#P OB98/GEN NMR

erre ene a

0 1
  C       21.903     360.225    -106.263
  O       20.758     360.732    -105.601
  P       20.813     362.136    -104.839
  C       21.460     361.174    -102.555
  O       20.459     361.862    -103.294
  C       20.873     360.502    -101.314
  O       20.297     361.525    -100.452
  C       19.768     359.475    -101.602
  O       19.889     358.454    -100.605
  C       18.496     360.273    -101.361
  O       17.367     359.450    -101.106
  C       18.938     361.135    -100.183
  N       15.283     363.335     -97.363
  C       15.859     362.117     -97.295
  N       16.807     361.593     -98.100
  C       17.159     362.474     -99.051
  C       16.641     363.742     -99.265
  C       15.665     364.180     -98.352
  N       15.093     365.434     -98.383
  N       17.219     364.316    -100.380
  C       18.068     363.415    -100.828
  N       18.112     362.310    -100.020
  O       20.022     363.234    -105.471
  O       22.369     362.496    -104.794
  H       16.663     360.003    -100.715
  H       22.563     363.209    -105.435
  H       15.516     361.476     -96.488
  H       18.664     363.504    -101.725
  H       18.924     360.579     -99.236
  H       18.277     360.886    -102.243
  H       19.814     359.046    -102.606
  H       21.694     360.040    -100.757
  H       22.213     361.905    -102.249
  H       14.507     365.689     -97.608
  H       15.547     366.164     -98.933
  H       21.947     360.427    -103.194
  P       19.948     356.913    -101.045
  C       17.833     356.233     -99.768
  O       19.237     356.079     -99.878
  O       21.289     356.417    -101.463
  O       18.885     356.828    -102.247
  H       19.041     356.016    -102.762
  H       17.611     357.164     -99.231
  H       17.425     355.391     -99.208
  H       17.363     356.269    -100.754
  H       21.668     359.281    -106.709
  H       22.696     360.098    -105.556
  H       22.209     360.913    -107.023

 3  4  5  6  7  8  9  10  11  12  22  25  29  30  31  32 0
 6-311+G(2d,p)
 ****
 33  36  37 0
 6-311+G(2d,p)
 ****
 1  2  13  14  15  16  17  18  19  20  21  23  24  26 0
 3-21G
 ****
 27  28  34  35  38  39  40  41  42  43  44  45  46  47  48 0
 3-21G
 ****


