%nproc=1
%NoSave
%Mem=1900MB
#P OB98/GEN NMR

erre ene a

0 1
  C      228.201     212.890    -466.607
  O      229.328     212.041    -466.569
  H      227.733     212.848    -467.597
  H      227.479     212.547    -465.859
  H      228.486     213.922    -466.374
  P      230.588     212.466    -467.467
  C      230.880     210.156    -468.626
  O      230.533     211.529    -468.773
  C      231.823     209.722    -469.747
  O      231.096     209.750    -471.010
  C      233.058     210.626    -469.900
  O      234.192     209.812    -470.213
  C      232.703     211.505    -471.088
  O      233.858     212.008    -471.753
  C      231.862     210.554    -471.930
  N      231.053     211.863    -476.809
  C      231.971     211.062    -476.228
  N      232.111     210.755    -474.918
  C      231.150     211.356    -474.190
  C      230.152     212.203    -474.635
  C      230.128     212.466    -476.018
  N      229.229     213.322    -476.614
  N      229.372     212.643    -473.583
  C      229.897     212.061    -472.510
  N      230.974     211.277    -472.829
  O      231.825     211.884    -466.630
  O      230.732     213.932    -467.730
  H      234.438     212.437    -471.091
  H      232.034     212.487    -465.893
  H      232.689     210.592    -476.908
  H      229.544     212.184    -471.495
  H      232.476     209.889    -472.552
  H      232.103     212.359    -470.745
  H      233.263     211.208    -468.993
  H      232.114     208.673    -469.578
  H      229.963     209.557    -468.656
  H      229.316     213.498    -477.599
  H      228.567     213.828    -476.033
  H      231.367     210.010    -467.651
  P      235.232     209.531    -469.024
  C      236.899     211.477    -469.477
  O      235.913     210.931    -468.604
  O      236.413     208.728    -469.746
  O      234.658     208.747    -467.895
  H      236.638     207.928    -469.232
  H      237.260     212.400    -469.074
  H      236.465     211.653    -470.439
  H      237.711     210.787    -469.573

 6  7  8  9  10  11  12  13  14  15  25  28  32  33  34  35 0
 6-311+G(2d,p)
 ****
 36  39  40 0
 6-311+G(2d,p)
 ****
 1  2  3  4  5  16  17  18  19  20  21  22  23  24 0
 3-21G
 ****
 26  27  29  30  31  37  38  41  42  43  44  45  46  47 0
 3-21G
 ****
 48 0
 3-21G
 ****


