%nproc=1
%NoSave
%Mem=1900MB
#P OB98/GEN NMR

erre ene a

0 1
  C     -136.774      93.144     594.164
  O     -138.069      93.506     593.668
  P     -138.446      95.031     593.321
  C     -139.716      97.017     594.336
  O     -139.101      95.766     594.602
  C     -139.715      97.954     595.560
  O     -140.728      97.561     596.521
  C     -138.381      98.022     596.321
  O     -138.293      99.340     596.867
  C     -138.605      97.008     597.440
  O     -137.707      97.157     598.529
  C     -140.066      97.284     597.776
  N     -141.961      95.601     602.237
  C     -141.574      96.831     601.828
  N     -141.119      97.201     600.618
  C     -141.122      96.167     599.755
  C     -141.490      94.855     600.023
  C     -141.922      94.585     601.333
  N     -142.279      93.319     601.773
  N     -141.329      94.058     598.904
  C     -140.850      94.878     597.979
  N     -140.709      96.162     598.447
  O     -139.252      95.193     592.061
  O     -137.031      95.759     593.155
  H     -137.984      96.546     599.229
  H     -137.046      96.319     592.348
  H     -141.627      97.618     602.586
  H     -140.571      94.587     596.979
  H     -140.166      98.169     598.417
  H     -138.464      95.988     597.031
  H     -137.508      97.790     595.703
  H     -139.996      98.956     595.197
  H     -140.755      96.845     594.026
  H     -142.481      93.209     602.750
  H     -142.134      92.535     601.156
  H     -139.201      97.507     593.498
  P     -137.037     100.288     596.572
  C     -135.214     101.374     598.014
  O     -136.186     100.353     597.931
  O     -137.375     101.630     595.994
  O     -136.099      99.439     595.586
  H     -135.481     100.035     595.127
  H     -134.341     101.107     597.407
  H     -134.905     101.492     599.058
  H     -135.625     102.324     597.659
  H     -136.737      92.087     594.327
  H     -136.590      93.654     595.086
  H     -136.028      93.420     593.449

 3  4  5  6  7  8  9  10  11  12  22  25  29  30  31  32 0
 6-311+G(2d,p)
 ****
 33  36  37 0
 6-311+G(2d,p)
 ****
 1  2  13  14  15  16  17  18  19  20  21  23  24  26 0
 3-21G
 ****
 27  28  34  35  38  39  40  41  42  43  44  45  46  47  48 0
 3-21G
 ****


