%nproc=1
%NoSave
%Mem=1900MB
#P OB98/GEN NMR

erre ene a

0 1
  C      -25.020     256.917     108.391
  O      -24.743     258.170     108.985
  H      -26.089     256.715     108.477
  H      -24.469     256.129     108.908
  H      -24.746     256.925     107.330
  P      -23.275     258.779     108.773
  C      -23.645     260.671     107.022
  O      -23.472     260.329     108.392
  C      -23.480     262.181     106.836
  O      -24.699     262.840     107.303
  C      -22.307     262.784     107.621
  O      -21.732     263.839     106.836
  C      -22.978     263.387     108.844
  O      -22.232     264.430     109.459
  C      -24.303     263.865     108.234
  N      -25.337     264.087     109.247
  C      -25.428     265.361     109.804
  O      -24.758     266.331     109.451
  N      -26.342     265.494     110.820
  C      -27.131     264.507     111.333
  O      -27.917     264.686     112.264
  C      -26.984     263.182     110.710
  C      -26.109     263.036     109.716
  O      -22.808     258.117     107.393
  O      -22.305     258.532     109.882
  H      -22.352     257.267     107.556
  H      -22.713     264.690     110.275
  H      -26.418     266.413     111.236
  H      -27.588     262.373     111.098
  H      -25.957     262.062     109.245
  H      -24.149     264.789     107.664
  H      -23.156     262.605     109.597
  H      -21.529     262.061     107.893
  H      -23.390     262.395     105.765
  H      -24.646     260.374     106.700
  H      -22.907     260.131     106.421
  P      -20.148     264.076     106.964
  C      -19.723     264.247     104.379
  O      -19.729     264.895     105.650
  O      -19.589     262.596     106.709
  O      -19.753     264.691     108.267
  H      -20.123     262.099     106.060
  H      -19.420     264.943     103.625
  H      -20.706     263.887     104.158
  H      -19.039     263.425     104.401

 6  7  8  9  10  11  12  13  14  15  16  27  31  32  33  34  35 0
 6-311+G(2d,p)
 ****
 36  37 0
 6-311+G(2d,p)
 ****
 1  2  3  4  5  17  18  19  20  21  22  23  24  25 0
 3-21G
 ****
 26  28  29  30  38  39  40  41  42  43  44  45 0
 3-21G
 ****


