%nproc=1
%NoSave
%Mem=1900MB
#P OB98/GEN NMR

erre ene a

0 1
  C      151.703    -184.069    -157.799
  O      152.194    -182.749    -157.589
  P      153.510    -182.298    -158.398
  C      155.179    -183.579    -156.889
  O      154.734    -182.320    -157.354
  C      156.703    -183.593    -156.697
  O      157.093    -184.896    -156.176
  C      157.510    -183.352    -157.978
  O      158.702    -182.649    -157.601
  C      157.882    -184.755    -158.428
  O      159.009    -184.760    -159.300
  C      158.114    -185.423    -157.071
  N      160.606    -189.837    -156.352
  C      160.975    -188.552    -156.154
  N      160.257    -187.422    -156.372
  C      159.033    -187.728    -156.841
  C      158.525    -188.987    -157.115
  C      159.368    -190.084    -156.857
  N      158.989    -191.392    -157.042
  N      157.231    -188.895    -157.610
  C      156.965    -187.603    -157.628
  N      158.021    -186.869    -157.143
  O      153.253    -180.735    -158.642
  O      153.748    -183.015    -159.686
  H      159.200    -185.688    -159.542
  H      153.101    -180.568    -159.592
  H      161.990    -188.402    -155.770
  H      156.049    -187.161    -157.977
  H      159.097    -185.167    -156.645
  H      157.035    -185.212    -158.949
  H      156.966    -182.794    -158.750
  H      156.956    -182.855    -155.930
  H      154.918    -184.343    -157.636
  H      159.596    -192.122    -156.704
  H      158.004    -191.595    -157.238
  H      154.675    -183.836    -155.951
  P      158.958    -181.223    -158.291
  C      160.484    -182.341    -160.074
  O      160.340    -181.331    -159.089
  O      159.295    -180.267    -157.053
  O      157.785    -180.714    -159.082
  H      159.041    -179.350    -157.265
  H      161.128    -181.976    -160.876
  H      159.517    -182.633    -160.501
  H      160.941    -183.224    -159.613
  H      150.831    -184.225    -157.199
  H      152.456    -184.778    -157.524
  H      151.453    -184.197    -158.832

 3  4  5  6  7  8  9  10  11  12  22  25  29  30  31  32 0
 6-311+G(2d,p)
 ****
 33  36  37 0
 6-311+G(2d,p)
 ****
 1  2  13  14  15  16  17  18  19  20  21  23  24  26 0
 3-21G
 ****
 27  28  34  35  38  39  40  41  42  43  44  45  46  47  48 0
 3-21G
 ****


