%nproc=1
%NoSave
%Mem=1900MB
#P OB98/GEN NMR

erre ene a

0 1
  C       96.878    -315.553     -17.349
  O       97.916    -316.056     -16.521
  P       99.264    -315.226     -16.299
  C      100.574    -317.274     -15.317
  O      100.487    -316.248     -16.280
  C      101.555    -318.345     -15.822
  O      100.984    -319.052     -16.941
  C      102.877    -317.728     -16.276
  O      103.830    -317.762     -15.228
  C      103.254    -318.592     -17.466
  O      103.878    -319.811     -17.023
  C      101.868    -318.892     -18.086
  N      101.274    -317.880     -18.982
  C      100.587    -318.288     -20.121
  O      100.414    -319.462     -20.428
  N      100.120    -317.277     -20.926
  C      100.235    -315.942     -20.678
  O      100.034    -315.062     -21.510
  C      100.722    -315.587     -19.343
  C      101.233    -316.552     -18.578
  O       99.150    -314.753     -14.777
  O       99.469    -314.074     -17.228
  H      103.218    -320.294     -16.494
  H       98.831    -313.834     -14.723
  H       99.743    -317.566     -21.828
  H      100.698    -314.544     -19.046
  H      101.631    -316.307     -17.595
  H      101.882    -319.837     -18.633
  H      103.982    -318.091     -18.101
  H      102.713    -316.700     -16.625
  H      101.729    -319.075     -15.019
  H       99.591    -317.713     -15.145
  H      100.923    -316.867     -14.363
  P      104.436    -316.393     -14.665
  C      106.525    -317.824     -14.259
  O      106.027    -316.582     -14.718
  O      103.889    -315.936     -13.353
  O      104.121    -315.345     -15.834
  H      103.310    -314.842     -15.623
  H      107.587    -317.894     -14.515
  H      105.988    -318.651     -14.730
  H      106.418    -317.881     -13.170
  H       96.067    -316.251     -17.368
  H       97.251    -315.412     -18.342
  H       96.534    -314.617     -16.961

 3  4  5  6  7  8  9  10  11  12  13  23  28  29  30  31  32 0
 6-311+G(2d,p)
 ****
 33  34 0
 6-311+G(2d,p)
 ****
 1  2  14  15  16  17  18  19  20  21  22  24  25  26  27 0
 3-21G
 ****
 35  36  37  38  39  40  41  42  43  44  45 0
 3-21G
 ****


