%nproc=1
%NoSave
%Mem=1900MB
#P OB98/GEN NMR

erre ene a

0 1
  C     -181.687     268.159     -98.620
  O     -180.465     268.787     -99.025
  P     -180.272     269.476    -100.463
  C     -178.723     267.854    -101.738
  O     -180.054     268.340    -101.571
  C     -178.696     266.550    -102.535
  O     -179.464     265.532    -101.868
  C     -179.280     266.643    -103.939
  O     -178.384     267.288    -104.826
  C     -179.535     265.169    -104.248
  O     -178.339     264.521    -104.704
  C     -179.968     264.625    -102.871
  N     -181.408     264.455    -102.763
  C     -181.993     263.519    -103.619
  O     -181.310     262.922    -104.451
  N     -183.348     263.294    -103.523
  C     -184.058     263.999    -102.703
  N     -185.393     263.729    -102.647
  C     -183.498     265.062    -101.848
  C     -182.177     265.229    -101.929
  O     -179.241     270.557    -100.486
  O     -181.713     270.075    -100.826
  H     -177.692     264.598    -103.977
  H     -181.595     270.875    -101.376
  H     -184.129     265.646    -101.200
  H     -181.680     265.984    -101.328
  H     -179.482     263.661    -102.674
  H     -180.293     265.030    -105.026
  H     -180.235     267.179    -103.906
  H     -177.652     266.207    -102.580
  H     -185.746     262.991    -103.239
  H     -178.295     267.680    -100.744
  H     -186.034     264.219    -102.042
  H     -178.130     268.623    -102.247
  P     -178.576     268.842    -105.160
  C     -179.168     268.664    -107.650
  O     -179.641     268.954    -106.347
  O     -177.315     269.619    -105.358
  O     -179.398     269.400    -103.899
  H     -179.147     270.327    -103.743
  H     -180.018     268.382    -108.278
  H     -178.449     267.839    -107.633
  H     -178.692     269.554    -108.069
  H     -181.578     267.774     -97.628
  H     -181.916     267.357     -99.291
  H     -182.480     268.877     -98.639

 3  4  5  6  7  8  9  10  11  12  13  23  27  28  29  30  32 0
 6-311+G(2d,p)
 ****
 34  35 0
 6-311+G(2d,p)
 ****
 1  2  14  15  16  17  18  19  20  21  22  24  25  26 0
 3-21G
 ****
 31  33  36  37  38  39  40  41  42  43  44  45  46 0
 3-21G
 ****


