%nproc=1
%NoSave
%Mem=1900MB
#P OB98/GEN NMR

erre ene a

0 1
  C     -174.070     118.206      36.261
  O     -175.065     117.636      37.095
  P     -174.963     116.055      37.374
  C     -175.233     113.972      35.822
  O     -175.555     115.330      36.075
  C     -176.198     113.399      34.781
  O     -177.469     113.092      35.390
  C     -176.500     114.342      33.623
  O     -175.465     114.287      32.658
  C     -177.834     113.797      33.127
  O     -177.638     112.648      32.282
  C     -178.526     113.402      34.441
  N     -183.140     115.454      34.201
  C     -182.537     114.524      33.374
  N     -183.291     114.040      32.361
  N     -181.306     114.106      33.526
  C     -180.670     114.686      34.569
  C     -181.154     115.628      35.448
  C     -182.530     116.043      35.301
  O     -183.141     116.788      36.062
  N     -180.203     115.997      36.363
  C     -179.158     115.255      36.057
  N     -179.395     114.428      34.989
  O     -176.073     115.815      38.498
  O     -173.609     115.569      37.789
  H     -177.107     112.907      31.507
  H     -175.666     115.779      39.385
  H     -184.095     115.725      34.045
  H     -178.217     115.264      36.589
  H     -179.134     112.496      34.330
  H     -178.385     114.532      32.534
  H     -184.236     114.334      32.169
  H     -176.632     115.366      33.990
  H     -182.863     113.361      31.745
  H     -175.771     112.458      34.410
  H     -175.325     113.402      36.750
  H     -174.198     113.907      35.468
  P     -175.157     115.622      31.824
  C     -176.053     116.681      29.626
  O     -176.025     115.551      30.480
  O     -173.652     115.405      31.321
  O     -175.292     116.886      32.606
  H     -173.181     116.260      31.318
  H     -176.201     116.339      28.601
  H     -175.123     117.253      29.682
  H     -176.888     117.325      29.912
  H     -174.251     119.255      36.156
  H     -174.102     117.741      35.298
  H     -173.106     118.052      36.699

 3  4  5  6  7  8  9  10  11  12  23  26  30  31 0
 6-311+G(2d,p)
 ****
 33  35  36  37  38 0
 6-311+G(2d,p)
 ****
 1  2  13  14  15  16  17  18  19  20  21  22  24  25 0
 3-21G
 ****
 27  28  29  32  34  39  40  41  42  43  44  45  46  47  48  49 0
 3-21G
 ****


