%nproc=1
%NoSave
%Mem=1900MB
#P OB98/GEN NMR

erre ene a

0 1
  C      -57.057    -237.781     199.629
  O      -55.645    -237.668     199.663
  P      -54.797    -237.831     198.315
  C      -52.941    -239.519     197.625
  O      -54.122    -239.283     198.359
  C      -52.497    -240.984     197.744
  O      -51.931    -241.170     199.064
  C      -53.622    -242.006     197.624
  O      -53.046    -243.282     197.335
  C      -54.188    -242.012     199.026
  O      -54.941    -243.190     199.301
  C      -52.923    -241.815     199.899
  N      -53.208    -240.989     201.086
  C      -53.836    -241.619     202.157
  O      -54.080    -242.827     202.172
  N      -54.249    -240.805     203.174
  C      -54.135    -239.445     203.190
  O      -54.771    -238.713     203.941
  C      -53.259    -238.869     202.156
  C      -52.862    -239.650     201.150
  O      -53.569    -236.831     198.548
  O      -55.539    -237.515     197.064
  H      -55.534    -243.338     198.529
  H      -53.746    -235.973     198.119
  H      -54.828    -241.239     203.880
  H      -53.020    -237.815     202.219
  H      -52.259    -239.241     200.346
  H      -52.521    -242.775     200.246
  H      -54.862    -241.155     199.143
  H      -54.380    -241.752     196.877
  H      -51.709    -241.184     197.008
  H      -52.156    -238.846     197.979
  H      -53.098    -239.281     196.567
  P      -53.967    -244.369     196.596
  C      -54.931    -246.436     197.777
  O      -54.888    -245.024     197.731
  O      -53.253    -245.335     195.711
  O      -55.005    -243.466     195.774
  H      -55.416    -243.996     195.069
  H      -55.118    -246.752     198.805
  H      -53.987    -246.877     197.435
  H      -55.745    -246.792     197.140
  H      -57.450    -237.644     200.615
  H      -57.329    -238.751     199.268
  H      -57.459    -237.033     198.978

 3  4  5  6  7  8  9  10  11  12  13  23  28  29  30  31  32 0
 6-311+G(2d,p)
 ****
 33  34 0
 6-311+G(2d,p)
 ****
 1  2  14  15  16  17  18  19  20  21  22  24  25  26  27 0
 3-21G
 ****
 35  36  37  38  39  40  41  42  43  44  45 0
 3-21G
 ****


