%nproc=1
%NoSave
%Mem=1900MB
#P OB98/GEN NMR

erre ene a

0 1
  C     -982.950     501.944     892.297
  O     -983.814     502.955     892.774
  P     -985.388     502.672     892.935
  C     -987.306     503.734     894.296
  O     -985.905     503.722     894.042
  C     -987.607     504.588     895.557
  O     -987.185     503.888     896.746
  C     -986.922     505.945     895.588
  O     -987.581     506.853     894.722
  C     -987.005     506.282     897.052
  O     -988.272     506.839     897.383
  C     -986.836     504.888     897.722
  N     -985.479     504.690     898.244
  C     -985.257     505.134     899.556
  O     -986.170     505.684     900.188
  N     -984.003     504.985     900.104
  C     -983.056     504.480     899.397
  N     -981.834     504.350     899.993
  C     -983.231     504.023     898.010
  C     -984.442     504.168     897.514
  O     -985.751     501.245     893.193
  O     -985.991     503.250     891.576
  H     -988.167     507.283     898.256
  H     -985.813     502.658     890.813
  H     -982.403     503.598     897.458
  H     -984.688     503.858     896.468
  H     -987.525     504.776     898.550
  H     -986.223     507.009     897.360
  H     -985.853     505.831     895.289
  H     -988.703     504.715     895.603
  H     -981.745     504.708     900.937
  H     -987.622     502.703     894.472
  H     -981.008     504.008     899.518
  H     -987.832     504.143     893.422
  P     -986.827     508.199     894.267
  C     -987.026     509.867     892.311
  O     -987.323     508.549     892.784
  O     -985.345     508.211     894.463
  O     -987.540     509.341     895.150
  H     -986.836     509.932     895.512
  H     -987.117     509.867     891.222
  H     -986.032     510.180     892.603
  H     -987.766     510.553     892.728
  H     -981.949     502.319     892.260
  H     -983.256     501.647     891.316
  H     -982.991     501.101     892.954

 3  4  5  6  7  8  9  10  11  12  13  23  27  28  29  30  32 0
 6-311+G(2d,p)
 ****
 34  35 0
 6-311+G(2d,p)
 ****
 1  2  14  15  16  17  18  19  20  21  22  24  25  26 0
 3-21G
 ****
 31  33  36  37  38  39  40  41  42  43  44  45  46 0
 3-21G
 ****


