%nproc=1
%NoSave
%Mem=1900MB
#P OB98/GEN NMR

erre ene a

0 1
  C     -381.740      16.858    -305.026
  O     -381.463      17.261    -306.351
  H     -381.307      15.867    -304.861
  H     -382.822      16.802    -304.862
  H     -381.295      17.564    -304.317
  P     -382.112      18.656    -306.824
  C     -384.440      19.111    -307.915
  O     -383.659      18.286    -307.060
  C     -385.906      19.054    -307.489
  O     -386.037      19.362    -306.082
  C     -386.804      20.049    -308.209
  O     -387.162      19.629    -309.518
  C     -388.000      20.067    -307.274
  O     -388.781      18.872    -307.467
  C     -387.301      20.061    -305.896
  N     -387.072      21.406    -305.359
  C     -388.062      21.918    -304.517
  O     -389.072      21.267    -304.259
  N     -387.902      23.189    -303.999
  C     -386.840      23.876    -304.297
  N     -386.739      25.130    -303.770
  C     -385.763      23.363    -305.165
  C     -385.944      22.141    -305.658
  O     -381.566      18.841    -308.316
  O     -381.873      19.826    -305.926
  H     -388.262      18.133    -307.100
  H     -382.009      19.615    -308.740
  H     -384.904      23.976    -305.389
  H     -385.194      21.696    -306.303
  H     -387.882      19.485    -305.161
  H     -388.666      20.919    -307.441
  H     -386.361      21.057    -308.232
  H     -386.257      18.019    -307.628
  H     -387.520      25.475    -303.235
  H     -384.330      18.749    -308.944
  H     -386.044      25.798    -304.088
  H     -384.086      20.147    -307.863
  P     -386.713      20.555    -310.749
  C     -387.671      22.655    -311.952
  O     -387.822      21.708    -310.900
  O     -386.983      19.620    -312.019
  O     -385.298      21.039    -310.696
  H     -386.285      19.733    -312.693
  H     -388.481      23.353    -311.922
  H     -387.673      22.146    -312.893
  H     -386.745      23.178    -311.831

 6  7  8  9  10  11  12  13  14  15  16  26  30  31  32  33  35 0
 6-311+G(2d,p)
 ****
 37  38 0
 6-311+G(2d,p)
 ****
 1  2  3  4  5  17  18  19  20  21  22  23  24  25 0
 3-21G
 ****
 27  28  29  34  36  39  40  41  42  43  44  45  46 0
 3-21G
 ****


