%nproc=1
%NoSave
%Mem=1900MB
#P OB98/GEN NMR

erre ene a

0 1
  C      -11.673     -83.115      15.753
  O      -13.083     -83.275      15.687
  P      -13.687     -84.755      15.821
  C      -14.278     -86.276      17.837
  O      -13.477     -85.209      17.348
  C      -13.485     -87.168      18.792
  O      -12.544     -87.965      18.024
  C      -12.678     -86.407      19.849
  O      -12.655     -87.218      21.031
  C      -11.284     -86.365      19.250
  O      -10.280     -86.137      20.235
  C      -11.232     -87.736      18.582
  N       -6.217     -87.749      17.594
  C       -6.903     -87.702      18.756
  N       -8.240     -87.703      18.938
  C       -8.880     -87.757      17.758
  C       -8.315     -87.774      16.494
  C       -6.911     -87.773      16.432
  N       -6.209     -87.831      15.251
  N       -9.296     -87.803      15.525
  C      -10.433     -87.802      16.190
  N      -10.230     -87.800      17.542
  O      -12.623     -85.641      15.018
  O      -15.063     -84.933      15.279
  H      -10.242     -86.917      20.820
  H      -13.028     -85.985      14.198
  H       -6.299     -87.665      19.659
  H      -11.418     -87.801      15.746
  H      -11.027     -88.539      19.301
  H      -11.223     -85.559      18.512
  H      -13.068     -85.411      20.079
  H      -14.184     -87.865      19.271
  H      -14.610     -86.881      16.988
  H       -5.212     -87.965      15.294
  H       -6.711     -88.040      14.394
  H      -15.160     -85.871      18.341
  P      -12.485     -86.456      22.431
  C      -13.917     -84.774      23.788
  O      -13.720     -85.448      22.560
  O      -11.230     -85.493      22.178
  O      -12.256     -87.363      23.595
  H      -10.770     -85.318      23.019
  H      -14.335     -83.784      23.585
  H      -12.982     -84.656      24.344
  H      -14.626     -85.341      24.398
  H      -11.426     -82.079      15.649
  H      -11.213     -83.672      14.964
  H      -11.317     -83.473      16.696

 3  4  5  6  7  8  9  10  11  12  22  25  29  30  31  32 0
 6-311+G(2d,p)
 ****
 33  36  37 0
 6-311+G(2d,p)
 ****
 1  2  13  14  15  16  17  18  19  20  21  23  24  26 0
 3-21G
 ****
 27  28  34  35  38  39  40  41  42  43  44  45  46  47  48 0
 3-21G
 ****


