%nproc=1
%NoSave
%Mem=1900MB
#P OB98/GEN NMR

erre ene a

0 1
  C      162.846    -212.846    -127.081
  O      162.984    -212.240    -125.792
  P      161.649    -212.057    -124.916
  C      159.954    -210.089    -124.604
  O      161.025    -210.643    -125.353
  C      159.476    -208.773    -125.230
  O      160.507    -207.751    -125.080
  C      159.129    -208.869    -126.724
  O      157.995    -208.016    -126.941
  C      160.357    -208.293    -127.400
  O      160.077    -207.829    -128.714
  C      160.748    -207.202    -126.396
  N      162.134    -206.761    -126.547
  C      162.333    -205.495    -127.090
  O      161.415    -204.791    -127.506
  N      163.639    -205.087    -127.180
  C      164.737    -205.834    -126.862
  O      165.885    -205.414    -126.962
  C      164.463    -207.204    -126.400
  C      163.196    -207.594    -126.270
  O      162.257    -211.792    -123.462
  O      160.724    -213.228    -125.013
  H      163.074    -211.263    -123.475
  H      160.920    -207.630    -129.167
  H      163.806    -204.156    -127.543
  H      165.313    -207.844    -126.192
  H      162.961    -208.603    -125.957
  H      160.094    -206.328    -126.508
  H      161.142    -209.060    -127.461
  H      158.890    -209.890    -127.039
  H      158.597    -208.428    -124.665
  H      160.280    -209.892    -123.579
  H      159.140    -210.820    -124.545
  P      156.625    -208.689    -127.454
  C      155.928    -210.036    -129.592
  O      156.962    -209.490    -128.800
  O      155.856    -207.384    -127.998
  O      155.845    -209.421    -126.408
  H      156.416    -206.822    -128.555
  H      156.347    -210.326    -130.561
  H      155.137    -209.304    -129.761
  H      155.519    -210.924    -129.107
  H      163.805    -212.906    -127.552
  H      162.189    -212.255    -127.684
  H      162.441    -213.830    -126.971

 3  4  5  6  7  8  9  10  11  12  13  24  28  29  30  31  32 0
 6-311+G(2d,p)
 ****
 33  34 0
 6-311+G(2d,p)
 ****
 1  2  14  15  16  17  18  19  20  21  22  23  25  26  27 0
 3-21G
 ****
 35  36  37  38  39  40  41  42  43  44  45 0
 3-21G
 ****


