%nproc=1
%NoSave
%Mem=1900MB
#P OB98/GEN NMR

erre ene a

0 1
  C      162.266      67.584     -14.003
  O      163.028      67.262     -15.148
  P      164.369      66.391     -15.093
  C      164.126      64.839     -17.165
  O      164.060      64.955     -15.748
  C      163.354      63.625     -17.708
  O      161.950      63.776     -17.416
  C      163.477      63.560     -19.235
  O      164.609      62.963     -19.836
  C      162.135      63.017     -19.716
  O      162.180      61.611     -19.979
  C      161.195      63.312     -18.545
  N      157.471      64.672     -21.719
  C      158.097      63.444     -21.589
  N      157.834      62.527     -22.545
  N      158.927      63.155     -20.618
  C      159.177      64.198     -19.791
  C      158.604      65.454     -19.807
  C      157.659      65.743     -20.864
  O      157.144      66.841     -21.065
  N      159.146      66.279     -18.856
  C      160.075      65.542     -18.284
  N      160.160      64.286     -18.843
  O      165.158      66.444     -13.822
  O      165.256      67.100     -16.241
  H      161.267      61.311     -20.162
  H      166.188      67.056     -15.960
  H      156.897      64.856     -22.533
  H      160.736      65.876     -17.494
  H      160.684      62.397     -18.221
  H      161.835      63.503     -20.654
  H      157.310      62.765     -23.384
  H      163.502      64.599     -19.595
  H      158.395      61.689     -22.579
  H      163.666      62.702     -17.201
  H      165.184      64.780     -17.440
  H      163.723      65.748     -17.625
  P      165.940      63.717     -20.308
  C      167.569      61.755     -20.530
  O      167.207      62.897     -19.768
  O      165.978      65.050     -19.422
  O      165.984      64.062     -21.762
  H      166.527      65.727     -19.861
  H      168.226      61.118     -19.926
  H      168.111      62.064     -21.430
  H      166.680      61.178     -20.819
  H      161.419      68.171     -14.292
  H      162.870      68.141     -13.318
  H      161.932      66.683     -13.532

 3  4  5  6  7  8  9  10  11  12  23  26  30  31 0
 6-311+G(2d,p)
 ****
 33  35  36  37  38 0
 6-311+G(2d,p)
 ****
 1  2  13  14  15  16  17  18  19  20  21  22  24  25 0
 3-21G
 ****
 27  28  29  32  34  39  40  41  42  43  44  45  46  47  48  49 0
 3-21G
 ****


