%nproc=1
%NoSave
%Mem=1900MB
#P OB98/GEN NMR

erre ene a

0 1
  C     -891.473    -634.083    -752.094
  O     -892.003    -634.550    -753.322
  P     -893.590    -634.814    -753.381
  C     -893.828    -632.858    -755.084
  O     -894.265    -633.430    -753.850
  C     -894.999    -632.602    -756.019
  O     -895.520    -633.872    -756.470
  C     -896.158    -631.819    -755.389
  O     -896.692    -630.942    -756.390
  C     -897.171    -632.883    -755.073
  O     -898.495    -632.346    -754.992
  C     -896.938    -633.882    -756.212
  N     -897.424    -635.223    -755.885
  C     -898.800    -635.433    -755.929
  O     -899.550    -634.489    -756.147
  N     -899.290    -636.690    -755.674
  C     -898.477    -637.628    -755.293
  N     -899.000    -638.862    -755.043
  C     -897.022    -637.408    -755.109
  C     -896.561    -636.213    -755.453
  O     -893.993    -634.919    -751.842
  O     -893.984    -636.035    -754.159
  H     -899.060    -633.035    -754.562
  H     -894.741    -635.539    -751.719
  H     -896.385    -638.222    -754.767
  H     -895.513    -635.967    -755.380
  H     -897.452    -633.539    -757.130
  H     -896.940    -633.349    -754.110
  H     -895.841    -631.225    -754.522
  H     -894.625    -632.072    -756.905
  H     -900.000    -638.970    -755.153
  H     -893.136    -633.553    -755.573
  H     -898.455    -639.656    -754.748
  H     -893.290    -631.924    -754.863
  P     -896.591    -629.364    -756.127
  C     -894.540    -629.084    -757.655
  O     -895.029    -629.010    -756.336
  O     -896.721    -629.293    -754.521
  O     -897.586    -628.468    -756.798
  H     -896.732    -628.369    -754.243
  H     -893.533    -628.689    -757.671
  H     -895.161    -628.497    -758.332
  H     -894.528    -630.131    -757.992
  H     -890.416    -633.949    -752.190
  H     -891.674    -634.798    -751.324
  H     -891.929    -633.149    -751.841

 3  4  5  6  7  8  9  10  11  12  13  21  23  27  28  29  30  32 0
 6-311+G(2d,p)
 ****
 34  35 0
 6-311+G(2d,p)
 ****
 1  2  14  15  16  17  18  19  20  22  24  25  26 0
 3-21G
 ****
 31  33  36  37  38  39  40  41  42  43  44  45  46 0
 3-21G
 ****


