%nproc=1
%NoSave
%Mem=1900MB
#P OB98/GEN NMR

erre ene a

0 1
  C       98.392      90.374    -155.441
  O       98.757      91.666    -155.903
  P       99.860      92.473    -155.064
  C      101.618      91.347    -156.591
  O      101.248      91.686    -155.262
  C      103.009      91.876    -156.918
  O      103.494      91.216    -158.122
  C      103.068      93.392    -157.169
  O      104.221      93.936    -156.508
  C      103.304      93.497    -158.666
  O      103.948      94.714    -159.020
  C      104.141      92.239    -158.903
  N      106.165      93.412    -163.378
  C      106.464      93.896    -162.121
  N      107.397      94.870    -162.059
  N      105.902      93.467    -161.023
  C      105.010      92.467    -161.233
  C      104.633      91.898    -162.429
  C      105.222      92.424    -163.640
  O      104.933      92.101    -164.791
  N      103.714      90.898    -162.238
  C      103.530      90.862    -160.932
  N      104.257      91.830    -160.284
  O       99.457      92.158    -153.548
  O       99.906      93.940    -155.318
  H      104.770      94.765    -158.495
  H       99.315      92.995    -153.064
  H      106.615      93.790    -164.192
  H      102.860      90.184    -160.417
  H      105.158      92.376    -158.508
  H      102.341      93.444    -159.185
  H      107.897      95.220    -162.861
  H      102.171      93.933    -156.853
  H      107.648      95.222    -161.144
  H      103.691      91.592    -156.105
  H      100.896      91.784    -157.289
  H      101.596      90.257    -156.698
  P      103.940      95.148    -155.492
  C      103.651      93.317    -153.662
  O      103.160      94.506    -154.252
  O      102.822      96.009    -156.244
  O      105.154      95.951    -155.160
  H      102.842      96.937    -155.941
  H      104.640      93.047    -154.044
  H      102.957      92.502    -153.879
  H      103.714      93.457    -152.580
  H       97.653      89.958    -156.093
  H       97.993      90.449    -154.451
  H       99.255      89.742    -155.431

 3  4  5  6  7  8  9  10  11  12  23  26  30  31  33  0
 6-311+G(2d,p)
 ****
 35  36  37  38 0
 6-311+G(2d,p)
 ****
 1  2  13  14  15  16  17  18  19  20  21  22  24  25  27  28  29 0
 3-21G
 ****
 32  34  39  40  41  42  43  44  45  46  47  48  49 0
 3-21G
 ****


