%nproc=1
%NoSave
%Mem=1900MB
#P OB98/GEN NMR

erre ene a

0 1
  C     -101.754    -212.551      88.115
  O     -100.722    -212.825      87.191
  H     -101.913    -213.438      88.732
  H     -102.683    -212.318      87.591
  H     -101.472    -211.718      88.764
  P     -100.329    -211.704      86.116
  C      -99.554    -213.639      84.594
  O      -99.241    -212.360      85.137
  C      -98.267    -214.391      84.236
  O      -97.556    -213.605      83.248
  C      -97.347    -214.591      85.449
  O      -96.958    -215.949      85.633
  C      -96.251    -213.555      85.227
  O      -95.016    -213.874      85.832
  C      -96.203    -213.418      83.703
  N      -95.677    -212.135      83.241
  C      -94.399    -212.131      82.690
  O      -93.686    -213.120      82.549
  N      -93.938    -210.906      82.276
  C      -94.604    -209.722      82.372
  O      -94.140    -208.656      81.981
  C      -95.938    -209.787      82.990
  C      -96.404    -210.972      83.390
  O      -99.941    -210.379      86.681
  O     -101.626    -211.588      85.185
  H      -95.212    -214.191      86.740
  H     -102.108    -210.767      85.399
  H      -93.020    -210.892      81.860
  H      -96.489    -208.863      83.093
  H      -97.386    -211.057      83.848
  H      -95.585    -214.205      83.266
  H      -96.583    -212.603      85.659
  H      -97.874    -214.354      86.381
  H      -98.534    -215.345      83.769
  H     -100.165    -213.483      83.699
  H     -100.131    -214.216      85.324
  P      -97.695    -216.994      86.584
  C      -95.765    -217.799      88.179
  O      -96.626    -218.074      87.083
  O      -99.000    -217.519      86.090
  O      -97.991    -216.145      87.924
  H      -98.823    -216.502      88.295
  H      -95.130    -218.642      88.354
  H      -96.351    -217.607      89.053
  H      -95.166    -216.941      87.955

 6  7  8  9  10  11  12  13  14  15  16  26  31  32  33  34  35 0
 6-311+G(2d,p)
 ****
 36  37 0
 6-311+G(2d,p)
 ****
 1  2  3  4  5  17  18  19  20  21  22  23  24  25 0
 3-21G
 ****
 27  28  29  30  38  39  40  41  42  43  44  45 0
 3-21G
 ****


