%nproc=1
%NoSave
%Mem=1900MB
#P OB98/GEN NMR

erre ene a

0 1
  C      -29.299       4.222      70.427
  O      -27.967       3.798      70.634
  H      -29.717       3.737      69.542
  H      -29.900       3.942      71.297
  H      -29.335       5.309      70.308
  P      -26.925       4.084      69.448
  C      -26.937       1.617      68.618
  O      -27.245       2.975      68.332
  C      -26.037       1.062      67.520
  O      -25.754      -0.334      67.769
  C      -26.659       1.116      66.129
  O      -26.521       2.389      65.521
  C      -25.829       0.069      65.407
  O      -24.537       0.610      65.081
  C      -25.696      -1.017      66.487
  N      -27.347      -5.249      64.124
  C      -26.221      -4.516      63.980
  N      -25.846      -3.416      64.663
  C      -26.766      -3.090      65.583
  C      -27.958      -3.745      65.850
  C      -28.244      -4.876      65.066
  N      -29.404      -5.607      65.188
  N      -28.651      -3.100      66.856
  C      -27.882      -2.088      67.199
  N      -26.747      -2.020      66.437
  O      -25.522       3.597      70.047
  O      -26.887       5.484      68.935
  H      -24.160       0.965      65.909
  H      -24.785       3.928      69.500
  H      -25.532      -4.858      63.213
  H      -28.106      -1.373      67.982
  H      -24.737      -1.548      66.435
  H      -26.286      -0.261      64.471
  H      -27.706       0.794      66.143
  H      -25.084       1.605      67.548
  H      -27.868       1.041      68.659
  H      -29.585      -6.305      64.484
  H      -30.141      -5.253      65.780
  H      -26.433       1.555      69.587
  P      -27.725       2.899      64.588
  C      -26.319       2.776      62.407
  O      -27.451       2.298      63.125
  O      -27.407       4.456      64.413
  O      -29.090       2.657      65.146
  H      -28.232       4.972      64.327
  H      -26.267       2.288      61.456
  H      -25.429       2.568      62.964
  H      -26.409       3.832      62.261

 6  7  8  9  10  11  12  13  14  15  25  28  32  33  34  35 0
 6-311+G(2d,p)
 ****
 36  39  40 0
 6-311+G(2d,p)
 ****
 1  2  3  4  5  16  17  18  19  20  21  22  23  24 0
 3-21G
 ****
 26  27  29  30  31  37  38  41  42  43  44  45  46  47 0
 3-21G
 ****
 48 0
 3-21G
 ****


