%nproc=1
%NoSave
%Mem=1900MB
#P OB98/GEN NMR

erre ene a

0 1
  C      338.327      68.052     370.590
  O      339.446      67.233     370.238
  P      339.255      65.640     370.333
  C      338.937      63.962     372.322
  O      339.010      65.314     371.892
  C      339.526      63.806     373.731
  O      340.952      64.118     373.706
  C      338.868      64.702     374.798
  O      338.827      63.931     376.014
  C      339.854      65.853     374.936
  O      339.716      66.523     376.180
  C      341.183      65.109     374.739
  N      342.285      66.005     374.385
  C      342.923      66.655     375.438
  O      342.554      66.565     376.609
  N      343.984      67.451     375.086
  C      344.403      67.719     373.810
  O      345.358      68.443     373.557
  C      343.610      67.090     372.740
  C      342.610      66.278     373.074
  O      340.738      65.119     370.048
  O      338.211      65.120     369.396
  H      341.431      65.691     370.434
  H      340.214      67.368     376.143
  H      344.486      67.911     375.840
  H      343.878      67.323     371.717
  H      341.991      65.820     372.309
  H      341.457      64.568     375.656
  H      339.691      66.577     374.125
  H      337.853      65.017     374.522
  H      339.435      62.750     374.024
  H      339.500      63.325     371.631
  H      337.894      63.629     372.287
  P      337.384      63.511     376.590
  C      335.738      64.552     378.344
  O      337.038      64.513     377.793
  O      337.781      62.151     377.363
  O      336.323      63.296     375.559
  H      338.572      62.248     377.914
  H      335.774      65.116     379.285
  H      335.372      63.548     378.561
  H      335.057      65.059     377.657
  H      338.592      69.083     370.482
  H      338.049      67.859     371.605
  H      337.503      67.826     369.946

 3  4  5  6  7  8  9  10  11  12  13  24  28  29  30  31  32 0
 6-311+G(2d,p)
 ****
 33  34 0
 6-311+G(2d,p)
 ****
 1  2  14  15  16  17  18  19  20  21  22  23  25  26  27 0
 3-21G
 ****
 35  36  37  38  39  40  41  42  43  44  45 0
 3-21G
 ****


