%nproc=1
%NoSave
%Mem=1900MB
#P OB98/GEN NMR

erre ene a

0 1
  C       12.374     -25.769    -161.664
  O       11.779     -24.482    -161.609
  P       12.671     -23.152    -161.733
  C       12.559     -22.838    -159.170
  O       13.393     -23.003    -160.309
  C       13.367     -23.079    -157.898
  O       13.911     -24.414    -157.917
  C       14.559     -22.148    -157.720
  O       14.144     -20.861    -157.292
  C       15.395     -22.937    -156.718
  O       14.878     -22.761    -155.389
  C       15.158     -24.388    -157.182
  N       16.255     -24.911    -157.992
  C       17.451     -25.179    -157.322
  O       17.557     -24.991    -156.110
  N       18.504     -25.695    -158.036
  C       18.383     -25.902    -159.312
  N       19.435     -26.478    -159.955
  C       17.158     -25.580    -160.066
  C       16.144     -25.098    -159.351
  O       11.928     -21.941    -162.184
  O       13.877     -23.565    -162.692
  H       15.300     -23.443    -154.832
  H       13.682     -23.432    -163.652
  H       17.109     -25.757    -161.132
  H       15.204     -24.856    -159.828
  H       15.015     -25.045    -156.316
  H       16.451     -22.649    -156.708
  H       15.112     -22.050    -158.663
  H       12.687     -22.998    -157.038
  H       20.180     -26.841    -159.371
  H       11.746     -23.570    -159.223
  H       19.321     -26.927    -160.855
  H       12.129     -21.832    -159.180
  P       15.171     -19.645    -157.488
  C       15.822     -19.720    -154.979
  O       16.264     -19.803    -156.322
  O       14.312     -18.366    -157.062
  O       15.723     -19.523    -158.870
  H       13.995     -17.891    -157.853
  H       16.623     -20.078    -154.328
  H       14.937     -20.342    -154.823
  H       15.601     -18.681    -154.724
  H       11.616     -26.517    -161.563
  H       13.082     -25.869    -160.868
  H       12.873     -25.891    -162.602

 3  4  5  6  7  8  9  10  11  12  13  23  27  28  29  30  32 0
 6-311+G(2d,p)
 ****
 34  35 0
 6-311+G(2d,p)
 ****
 1  2  14  15  16  17  18  19  20  21  22  24  25  26 0
 3-21G
 ****
 31  33  36  37  38  39  40  41  42  43  44  45  46 0
 3-21G
 ****


