%nproc=1
%NoSave
%Mem=1900MB
#P OB98/GEN NMR

erre ene a

0 1
  C       10.831      -1.074      33.860
  O       10.697      -0.107      32.833
  P       10.062      -0.591      31.438
  C       12.272      -1.578      30.493
  O       11.260      -0.586      30.370
  C       12.563      -2.246      29.149
  O       13.800      -2.992      29.254
  C       11.469      -3.205      28.678
  O       11.363      -3.086      27.259
  C       12.030      -4.573      29.016
  O       11.463      -5.593      28.196
  C       13.535      -4.339      28.813
  N       14.347      -5.309      29.540
  C       14.337      -6.624      29.064
  O       13.605      -6.934      28.125
  N       15.115      -7.562      29.695
  C       15.761      -7.240      30.773
  N       16.520      -8.203      31.360
  C       15.699      -5.895      31.378
  C       14.999      -4.984      30.705
  O        9.170       0.660      30.999
  O        9.269      -1.853      31.521
  H       11.902      -6.444      28.421
  H        8.384       0.369      30.500
  H       16.227      -5.689      32.298
  H       14.917      -3.966      31.061
  H       13.794      -4.397      27.748
  H       11.817      -4.815      30.065
  H       10.499      -3.003      29.140
  H       12.722      -1.457      28.403
  H       16.534      -9.121      30.935
  H       11.931      -2.348      31.190
  H       17.056      -8.044      32.202
  H       13.178      -1.123      30.904
  P        9.969      -2.571      26.658
  C        8.948      -4.830      27.326
  O        9.163      -3.905      26.279
  O       10.420      -2.048      25.209
  O        9.222      -1.517      27.403
  H        9.659      -1.644      24.755
  H        8.278      -5.615      26.968
  H        8.486      -4.336      28.185
  H        9.898      -5.286      27.621
  H       11.264      -0.618      34.725
  H       11.463      -1.868      33.522
  H        9.867      -1.466      34.109

 3  4  5  6  7  8  9  10  11  12  13  21  23  27  28  29  30  32 0
 6-311+G(2d,p)
 ****
 34  35 0
 6-311+G(2d,p)
 ****
 1  2  14  15  16  17  18  19  20  22  24  25  26 0
 3-21G
 ****
 31  33  36  37  38  39  40  41  42  43  44  45  46 0
 3-21G
 ****


