%nproc=1
%NoSave
%Mem=1900MB
#P OB98/GEN NMR

erre ene a

0 1
  C     -283.147    -928.834    -432.308
  O     -283.558    -930.119    -431.878
  P     -283.530    -930.492    -430.327
  C     -285.968    -930.148    -429.593
  O     -284.650    -929.610    -429.585
  C     -286.480    -930.318    -428.161
  O     -285.676    -931.291    -427.458
  C     -286.406    -929.045    -427.318
  O     -287.472    -928.171    -427.667
  C     -286.498    -929.622    -425.910
  O     -287.855    -929.911    -425.551
  C     -285.692    -930.930    -426.053
  N     -282.417    -932.646    -422.547
  C     -283.737    -932.834    -422.701
  N     -284.557    -932.304    -423.646
  C     -283.866    -931.499    -424.464
  C     -282.524    -931.184    -424.409
  C     -281.764    -931.822    -423.401
  N     -280.400    -931.704    -423.272
  N     -282.185    -930.293    -425.408
  C     -283.318    -930.063    -426.047
  N     -284.347    -930.826    -425.554
  O     -282.179    -930.458    -429.693
  O     -284.142    -931.966    -430.277
  H     -288.290    -929.061    -425.345
  H     -283.474    -932.577    -429.901
  H     -284.213    -933.496    -421.979
  H     -283.430    -929.379    -426.888
  H     -286.179    -931.763    -425.524
  H     -286.095    -928.940    -425.157
  H     -285.444    -928.571    -427.462
  H     -287.487    -930.705    -428.212
  H     -285.948    -931.113    -430.097
  H     -279.947    -932.306    -422.615
  H     -279.867    -931.336    -424.063
  H     -286.625    -929.472    -430.151
  P     -287.540    -926.716    -427.001
  C     -286.019    -925.308    -428.506
  O     -286.141    -925.998    -427.271
  O     -288.008    -926.676    -425.580
  O     -288.538    -925.909    -427.949
  H     -289.044    -925.262    -427.428
  H     -285.855    -926.020    -429.318
  H     -285.162    -924.641    -428.450
  H     -286.928    -924.719    -428.705
  H     -283.234    -928.769    -433.372
  H     -282.129    -928.671    -432.023
  H     -283.768    -928.090    -431.854

 3  4  5  6  7  8  9  10  11  12  22  25  29  30  31  32 0
 6-311+G(2d,p)
 ****
 33  36  37 0
 6-311+G(2d,p)
 ****
 1  2  13  14  15  16  17  18  19  20  21  23  24  26 0
 3-21G
 ****
 27  28  34  35  38  39  40  41  42  43  44  45  46  47  48 0
 3-21G
 ****


