%nproc=1
%NoSave
%Mem=1900MB
#P OB98/GEN NMR

erre ene a

0 1
  C      -72.352     150.559      98.633
  O      -72.433     149.250      98.099
  H      -71.313     150.899      98.576
  H      -72.663     150.574      99.681
  H      -72.978     151.243      98.053
  P      -73.830     148.471      98.213
  C      -75.221     147.501     100.168
  O      -74.008     148.133      99.768
  C      -75.053     146.870     101.546
  O      -74.036     145.847     101.507
  C      -74.601     147.862     102.611
  O      -75.677     148.685     103.020
  C      -74.058     146.920     103.667
  O      -75.113     146.354     104.455
  C      -73.378     145.838     102.797
  N      -71.941     146.050     102.653
  C      -71.136     145.496     103.654
  O      -71.640     144.869     104.584
  N      -69.779     145.691     103.583
  C      -69.269     146.359     102.596
  N      -67.916     146.516     102.586
  C      -70.079     146.947     101.513
  C      -71.396     146.759     101.605
  O      -74.025     147.299      97.300
  O      -74.921     149.616      97.963
  H      -75.764     146.003     103.815
  H      -75.127     149.689      97.012
  H      -69.612     147.493     100.708
  H      -72.065     147.157     100.850
  H      -73.538     144.841     103.225
  H      -73.376     147.432     104.345
  H      -73.770     148.467     102.235
  H      -76.000     146.391     101.827
  H      -67.398     146.104     103.354
  H      -75.445     146.730      99.424
  H      -67.404     146.938     101.827
  H      -76.046     148.222     100.181
  P      -75.459     150.259     103.240
  C      -74.127     151.682     104.930
  O      -74.644     150.390     104.618
  O      -76.694     151.093     103.143
  O      -74.356     150.630     102.139
  H      -74.744     150.646     101.228
  H      -73.608     151.642     105.865
  H      -74.934     152.382     104.999
  H      -73.452     151.991     104.160

 6  7  8  9  10  11  12  13  14  15  16  26  30  31  32  33  35 0
 6-311+G(2d,p)
 ****
 37  38 0
 6-311+G(2d,p)
 ****
 1  2  3  4  5  17  18  19  20  21  22  23  24  25 0
 3-21G
 ****
 27  28  29  34  36  39  40  41  42  43  44  45  46 0
 3-21G
 ****


