%nproc=1
%NoSave
%Mem=1900MB
#P OB98/GEN NMR

erre ene a

0 1
  C     -231.523    -111.781     277.250
  O     -231.710    -110.669     276.368
  P     -233.132    -110.565     275.624
  C     -232.449    -109.996     273.190
  O     -232.929    -110.990     274.085
  C     -233.368    -109.856     271.964
  O     -233.526    -111.136     271.286
  C     -234.779    -109.357     272.307
  O     -235.236    -108.557     271.210
  C     -235.592    -110.638     272.350
  O     -236.988    -110.378     272.208
  C     -234.941    -111.414     271.207
  N     -237.470    -115.329     269.112
  C     -237.417    -114.016     268.803
  N     -236.731    -113.029     269.424
  C     -236.019    -113.529     270.448
  C     -235.977    -114.843     270.889
  C     -236.749    -115.771     270.174
  N     -236.826    -117.106     270.507
  N     -235.158    -114.957     272.004
  C     -234.722    -113.730     272.226
  N     -235.189    -112.842     271.298
  O     -233.390    -108.986     275.546
  O     -234.241    -111.268     276.339
  H     -237.289    -109.885     273.002
  H     -234.096    -108.736     276.173
  H     -238.008    -113.715     267.936
  H     -234.083    -113.434     273.046
  H     -235.300    -111.083     270.219
  H     -235.432    -111.150     273.309
  H     -234.844    -108.786     273.237
  H     -232.896    -109.163     271.256
  H     -231.441    -110.254     272.850
  H     -237.426    -117.703     269.959
  H     -236.333    -117.439     271.323
  H     -232.353    -109.046     273.723
  P     -234.904    -106.988     271.277
  C     -237.366    -106.419     270.692
  O     -236.291    -106.251     271.593
  O     -234.599    -106.600     269.749
  O     -233.759    -106.641     272.178
  H     -234.020    -105.817     269.711
  H     -238.296    -106.528     271.264
  H     -237.241    -107.300     270.056
  H     -237.444    -105.527     270.057
  H     -230.544    -111.735     277.679
  H     -231.630    -112.693     276.701
  H     -232.255    -111.745     278.029

 3  4  5  6  7  8  9  10  11  12  22  25  29  30  31  32 0
 6-311+G(2d,p)
 ****
 33  36  37 0
 6-311+G(2d,p)
 ****
 1  2  13  14  15  16  17  18  19  20  21  23  24  26 0
 3-21G
 ****
 27  28  34  35  38  39  40  41  42  43  44  45  46  47  48 0
 3-21G
 ****


