%nproc=1
%NoSave
%Mem=1900MB
#P OB98/GEN NMR

erre ene a

0 1
  C     -857.256    2762.781      45.005
  O     -855.888    2762.593      44.781
  H     -857.677    2763.338      44.142
  H     -857.425    2763.364      45.899
  H     -857.780    2761.813      45.066
  P     -855.053    2761.692      45.811
  C     -854.951    2759.583      44.279
  O     -855.433    2760.144      45.511
  C     -855.667    2758.248      43.998
  O     -855.442    2757.347      45.091
  C     -857.193    2758.416      43.805
  O     -857.626    2757.546      42.792
  C     -857.756    2757.973      45.150
  O     -859.069    2757.472      45.050
  C     -856.734    2756.908      45.575
  N     -859.225    2755.015      49.550
  C     -859.490    2754.917      48.198
  N     -860.618    2754.246      47.869
  N     -858.750    2755.441      47.277
  C     -857.663    2756.097      47.777
  C     -857.283    2756.254      49.069
  C     -858.112    2755.673      50.092
  O     -857.917    2755.737      51.314
  N     -856.091    2756.961      49.156
  C     -855.788    2757.248      47.903
  N     -856.694    2756.739      47.033
  O     -855.167    2762.082      47.237
  O     -853.548    2761.780      45.295
  H     -859.062    2756.761      44.359
  H     -853.006    2762.360      45.886
  H     -859.813    2754.603      50.208
  H     -854.922    2757.810      47.593
  H     -856.951    2755.931      45.152
  H     -857.735    2758.806      45.877
  H     -861.220    2753.785      48.517
  H     -857.475    2759.451      43.578
  H     -860.829    2754.136      46.882
  H     -855.220    2757.831      43.091
  H     -853.885    2759.402      44.436
  H     -855.091    2760.292      43.482
  P     -858.370    2758.162      41.478
  C     -856.785    2758.224      39.440
  O     -857.264    2758.907      40.595
  O     -859.605    2758.953      41.795
  O     -858.718    2756.845      40.628
  H     -859.539    2757.020      40.146
  H     -856.055    2758.830      38.945
  H     -857.601    2758.033      38.775
  H     -856.339    2757.296      39.733

 6  7  8  9  10  11  12  13  14  15  26  29  33  34 0
 6-311+G(2d,p)
 ****
 36  38  39  40  41 0
 6-311+G(2d,p)
 ****
 1  2  3  4  5  16  17  18  19  20  21  22  23  24  25 0
 3-21G
 ****
 27  28  30  31  32  35  37  42  43  44  45  46  47 0
 3-21G
 ****
 48  49 0
 3-21G
 ****


