%nproc=1
%NoSave
%Mem=1900MB
#P OB98/GEN NMR

erre ene a

0 1
  C      238.247    -458.458    -316.342
  O      239.526    -458.537    -316.949
  P      239.944    -459.928    -317.632
  C      242.394    -459.938    -316.670
  O      241.540    -459.871    -317.800
  C      243.861    -459.982    -317.122
  O      244.128    -461.223    -317.802
  C      244.251    -458.885    -318.104
  O      244.440    -457.638    -317.457
  C      245.514    -459.479    -318.720
  O      246.638    -459.276    -317.845
  C      245.159    -460.979    -318.784
  N      244.738    -461.415    -320.114
  C      245.732    -461.929    -320.937
  O      246.908    -462.029    -320.591
  N      245.334    -462.316    -322.191
  C      244.078    -462.179    -322.708
  O      243.783    -462.498    -323.855
  C      243.075    -461.598    -321.805
  C      243.441    -461.244    -320.572
  O      239.371    -459.712    -319.110
  O      239.411    -461.120    -316.916
  H      239.333    -458.767    -319.350
  H      246.379    -459.635    -316.971
  H      246.029    -462.716    -322.799
  H      242.069    -461.465    -322.189
  H      242.719    -460.806    -319.894
  H      246.020    -461.586    -318.480
  H      245.765    -459.031    -319.685
  H      243.482    -458.787    -318.879
  H      244.494    -459.937    -316.223
  H      242.164    -460.840    -316.100
  H      242.216    -459.063    -316.034
  P      243.584    -456.395    -318.027
  C      245.617    -454.809    -317.594
  O      244.244    -455.075    -317.400
  O      242.214    -456.572    -317.222
  O      243.440    -456.401    -319.511
  H      242.348    -456.800    -316.288
  H      245.792    -453.742    -317.419
  H      245.935    -455.055    -318.606
  H      246.206    -455.383    -316.872
  H      238.107    -457.480    -315.931
  H      238.177    -459.186    -315.561
  H      237.492    -458.648    -317.076

 3  4  5  6  7  8  9  10  11  12  13  24  28  29  30  31  32 0
 6-311+G(2d,p)
 ****
 33  34 0
 6-311+G(2d,p)
 ****
 1  2  14  15  16  17  18  19  20  21  22  23  25  26  27 0
 3-21G
 ****
 35  36  37  38  39  40  41  42  43  44  45 0
 3-21G
 ****


