%nproc=1
%NoSave
%Mem=1900MB
#P OB98/GEN NMR

erre ene a

0 1
  C      585.114    -614.785     408.699
  O      584.444    -615.754     409.484
  H      585.967    -614.410     409.262
  H      584.448    -613.945     408.466
  H      585.478    -615.237     407.769
  P      583.096    -616.409     408.907
  C      583.517    -618.534     410.335
  O      582.618    -617.477     410.003
  C      582.768    -619.706     410.960
  O      582.318    -619.356     412.292
  C      581.512    -620.123     410.206
  O      581.855    -620.848     409.035
  C      580.787    -620.927     411.277
  O      581.349    -622.237     411.411
  C      581.079    -620.069     412.541
  N      580.006    -619.145     412.868
  C      578.895    -619.693     413.540
  O      578.868    -620.901     413.785
  N      577.853    -618.861     413.879
  C      577.921    -617.591     413.619
  N      576.865    -616.822     413.987
  C      579.088    -616.963     412.956
  C      580.073    -617.784     412.601
  O      583.166    -616.942     407.511
  O      582.012    -615.240     409.038
  H      581.246    -622.673     410.535
  H      581.949    -614.736     408.206
  H      579.108    -615.889     412.771
  H      580.966    -617.406     412.111
  H      581.250    -620.716     413.402
  H      579.723    -621.055     411.048
  H      580.905    -619.250     409.951
  H      583.472    -620.539     411.063
  H      576.103    -617.294     414.460
  H      584.246    -618.128     411.045
  H      576.867    -615.814     413.989
  H      584.060    -618.870     409.441
  P      580.785    -621.133     407.876
  C      582.555    -620.810     406.039
  O      581.637    -621.710     406.637
  O      579.882    -619.993     407.547
  O      580.011    -622.442     408.393
  H      579.350    -622.191     409.101
  H      583.060    -621.299     405.233
  H      583.271    -620.493     406.769
  H      582.027    -619.958     405.664

 6  7  8  9  10  11  12  13  14  15  16  26  30  31  32  33  35 0
 6-311+G(2d,p)
 ****
 37  38 0
 6-311+G(2d,p)
 ****
 1  2  3  4  5  17  18  19  20  21  22  23  24  25 0
 3-21G
 ****
 27  28  29  34  36  39  40  41  42  43  44  45  46 0
 3-21G
 ****


