%nproc=1
%NoSave
%Mem=1900MB
#P OB98/GEN NMR

erre ene a

0 1
  C     -320.038    -897.490     566.300
  O     -318.986    -897.500     567.238
  P     -319.150    -897.980     568.750
  C     -320.480    -897.210     570.864
  O     -320.263    -897.080     569.468
  C     -320.995    -895.910     571.483
  O     -319.885    -894.950     571.504
  C     -322.088    -895.260     570.612
  O     -323.164    -894.710     571.362
  C     -321.324    -894.310     569.707
  O     -322.119    -893.270     569.130
  C     -320.188    -893.850     570.644
  N     -317.315    -889.890     569.196
  C     -318.377    -889.910     570.087
  N     -318.855    -888.710     570.490
  N     -318.946    -891.030     570.506
  C     -318.457    -892.150     569.905
  C     -317.412    -892.230     569.019
  C     -316.766    -891.020     568.599
  O     -315.889    -890.930     567.729
  N     -317.217    -893.520     568.606
  C     -318.177    -894.210     569.192
  N     -318.979    -893.400     569.982
  O     -317.882    -898.260     569.500
  O     -319.927    -899.400     568.553
  H     -322.796    -893.700     568.598
  H     -319.605    -900.000     569.277
  H     -316.978    -888.990     568.852
  H     -318.363    -895.280     569.082
  H     -320.514    -893.000     571.259
  H     -320.906    -894.900     568.881
  H     -318.538    -887.840     570.078
  H     -322.573    -896.020     569.983
  H     -319.768    -888.690     570.931
  H     -321.320    -896.080     572.511
  H     -319.510    -897.480     571.310
  H     -321.183    -898.030     571.065
  P     -324.719    -894.560     570.938
  C     -326.434    -892.680     570.700
  O     -325.074    -893.000     570.858
  O     -325.550    -895.050     572.219
  O     -325.107    -895.350     569.721
  H     -326.329    -895.560     571.917
  H     -326.530    -891.620     570.363
  H     -326.960    -892.790     571.647
  H     -326.892    -893.300     569.914
  H     -319.675    -897.127     565.361
  H     -320.822    -896.852     566.650
  H     -320.415    -898.484     566.176

 3  4  5  6  7  8  9  10  11  12  23  26  30  31 0
 6-311+G(2d,p)
 ****
 33  35  36  37  38 0
 6-311+G(2d,p)
 ****
 1  2  13  14  15  16  17  18  19  20  21  22  24  25 0
 3-21G
 ****
 27  28  29  32  34  39  40  41  42  43  44  45  46  47  48  49 0
 3-21G
 ****


