%nproc=1
%NoSave
%Mem=1900MB
#P OB98/GEN NMR

erre ene a

0 1
  C      462.865     -78.995     125.420
  O      463.888     -78.940     124.444
  H      462.271     -78.078     125.357
  H      463.305     -79.062     126.419
  H      462.213     -79.854     125.241
  P      464.773     -80.261     124.249
  C      466.696     -79.180     125.674
  O      465.846     -80.298     125.445
  C      466.860     -78.947     127.173
  O      465.626     -79.196     127.878
  C      467.852     -79.888     127.840
  O      469.189     -79.606     127.495
  C      467.525     -79.643     129.305
  O      468.127     -78.426     129.772
  C      465.983     -79.508     129.255
  N      465.302     -80.701     129.733
  C      464.696     -80.595     130.993
  O      464.752     -79.534     131.619
  N      464.073     -81.699     131.518
  C      464.034     -82.802     130.838
  N      463.410     -83.862     131.418
  C      464.633     -82.951     129.497
  C      465.250     -81.873     129.013
  O      465.672     -79.894     122.979
  O      463.999     -81.532     124.114
  H      469.069     -78.632     129.934
  H      466.158     -79.058     123.075
  H      464.568     -83.888     128.965
  H      465.717     -81.895     128.038
  H      465.652     -78.657     129.866
  H      467.892     -80.445     129.947
  H      467.597     -80.932     127.609
  H      467.139     -77.896     127.330
  H      463.028     -83.731     132.348
  H      466.304     -78.285     125.185
  H      463.346     -84.777     131.001
  H      467.666     -79.407     125.219
  P      470.017     -80.602     126.546
  C      471.915     -80.531     128.284
  O      471.064     -81.359     127.496
  O      470.618     -79.972     125.335
  O      468.959     -81.758     126.218
  H      468.620     -82.236     126.999
  H      472.565     -81.145     128.872
  H      471.320     -79.920     128.930
  H      472.499     -79.906     127.641

 6  7  8  9  10  11  12  13  14  15  16  26  30  31  32  33  35 0
 6-311+G(2d,p)
 ****
 37  38 0
 6-311+G(2d,p)
 ****
 1  2  3  4  5  17  18  19  20  21  22  23  24  25 0
 3-21G
 ****
 27  28  29  34  36  39  40  41  42  43  44  45  46 0
 3-21G
 ****


