%nproc=1
%NoSave
%Mem=1900MB
#P OB98/GEN NMR

erre ene a

0 1
  C     -305.510    -557.979     185.081
  O     -304.976    -558.992     185.943
  P     -304.783    -560.518     185.494
  C     -302.545    -561.330     186.490
  O     -303.961    -561.308     186.627
  C     -301.890    -560.117     187.156
  O     -302.296    -560.031     188.559
  C     -300.350    -560.134     187.128
  O     -299.930    -558.780     186.905
  C     -300.012    -560.595     188.536
  O     -298.684    -560.311     188.930
  C     -301.086    -559.842     189.326
  N     -301.279    -560.276     190.701
  C     -300.745    -559.471     191.718
  O     -300.090    -558.463     191.463
  N     -300.954    -559.846     193.026
  C     -301.622    -560.921     193.301
  N     -301.798    -561.222     194.615
  C     -302.180    -561.806     192.265
  C     -301.975    -561.425     191.005
  O     -304.198    -560.671     184.126
  O     -306.243    -561.174     185.556
  H     -306.335    -561.823     184.833
  H     -298.086    -560.659     188.245
  H     -302.738    -562.687     192.535
  H     -302.382    -562.009     190.183
  H     -300.865    -558.768     189.307
  H     -300.149    -561.680     188.592
  H     -299.931    -560.766     186.339
  H     -302.270    -559.214     186.666
  H     -301.407    -560.586     195.297
  H     -302.300    -561.321     185.424
  H     -302.310    -562.030     194.941
  H     -302.160    -562.259     186.923
  P     -299.330    -558.362     185.479
  C     -299.621    -555.777     185.575
  O     -298.739    -556.879     185.617
  O     -300.664    -558.107     184.621
  O     -298.468    -559.377     184.801
  H     -300.462    -558.240     183.675
  H     -299.349    -555.076     186.369
  H     -300.665    -556.071     185.717
  H     -299.522    -555.275     184.610
  H     -305.541    -557.046     185.604
  H     -306.500    -558.252     184.780
  H     -304.888    -557.883     184.216

 3  4  5  6  7  8  9  10  11  12  13  24  27  28  29  30  32 0
 6-311+G(2d,p)
 ****
 34  35 0
 6-311+G(2d,p)
 ****
 1  2  14  15  16  17  18  19  20  21  22  23  25  26 0
 3-21G
 ****
 31  33  36  37  38  39  40  41  42  43  44  45  46 0
 3-21G
 ****


