%nproc=1
%NoSave
%Mem=1900MB
#P OB98/GEN NMR

erre ene a

0 1
  C      -43.932     -60.361      31.094
  O      -44.596     -59.247      31.668
  P      -46.178     -59.284      31.928
  C      -46.010     -57.769      33.999
  O      -46.547     -57.919      32.690
  C      -46.211     -56.341      34.503
  O      -45.427     -55.443      33.684
  C      -47.660     -55.874      34.438
  O      -47.925     -55.031      35.562
  C      -47.725     -55.025      33.180
  O      -48.780     -54.051      33.264
  C      -46.309     -54.445      33.135
  N      -46.553     -51.059      29.284
  C      -47.085     -51.046      30.526
  N      -47.001     -51.990      31.488
  C      -46.229     -53.011      31.081
  C      -45.616     -53.162      29.846
  C      -45.803     -52.124      28.917
  N      -45.250     -52.134      27.655
  N      -44.930     -54.359      29.785
  C      -45.109     -54.907      30.966
  N      -45.877     -54.127      31.788
  O      -46.679     -60.519      32.592
  O      -46.828     -59.079      30.484
  H      -48.622     -53.395      32.553
  H      -47.628     -59.633      30.390
  H      -47.658     -50.159      30.780
  H      -44.717     -55.865      31.272
  H      -46.222     -53.540      33.750
  H      -47.926     -55.665      32.315
  H      -48.376     -56.703      34.416
  H      -45.825     -56.274      35.528
  H      -44.939     -57.989      33.959
  H      -45.337     -51.295      27.105
  H      -44.555     -52.838      27.445
  H      -46.487     -58.489      34.673
  P      -49.230     -55.405      36.430
  C      -48.570     -54.862      38.889
  O      -49.173     -54.423      37.694
  O      -49.317     -56.870      36.708
  O      -50.398     -54.828      35.499
  H      -50.072     -54.104      34.920
  H      -48.665     -54.073      39.640
  H      -47.508     -55.061      38.726
  H      -49.066     -55.764      39.260
  H      -42.888     -60.145      31.001
  H      -44.342     -60.561      30.126
  H      -44.065     -61.217      31.721

 3  4  5  6  7  8  9  10  11  12  22  25  29  30  31  32 0
 6-311+G(2d,p)
 ****
 33  36  37 0
 6-311+G(2d,p)
 ****
 1  2  13  14  15  16  17  18  19  20  21  23  24  26 0
 3-21G
 ****
 27  28  34  35  38  39  40  41  42  43  44  45  46  47  48 0
 3-21G
 ****


