%nproc=1
%NoSave
%Mem=1900MB
#P OB98/GEN NMR

erre ene a

0 1
  C     -183.725     810.917    -394.385
  O     -183.508     812.258    -393.937
  P     -184.690     812.913    -393.070
  C     -183.477     814.072    -391.071
  O     -184.099     814.223    -392.345
  C     -182.498     815.209    -390.805
  O     -181.307     815.110    -391.610
  C     -183.086     816.596    -391.106
  O     -183.897     817.022    -390.023
  C     -181.811     817.443    -391.246
  O     -181.307     817.864    -389.967
  C     -180.825     816.450    -391.901
  N     -179.964     819.754    -395.641
  C     -180.208     819.978    -394.305
  N     -180.186     821.265    -393.897
  N     -180.428     819.031    -393.441
  C     -180.415     817.795    -393.978
  C     -180.153     817.441    -395.288
  C     -179.893     818.504    -396.237
  O     -179.643     818.357    -397.435
  N     -180.166     816.075    -395.451
  C     -180.545     815.620    -394.288
  N     -180.658     816.599    -393.331
  O     -184.900     811.875    -391.873
  O     -185.946     813.123    -393.850
  H     -181.170     817.078    -389.410
  H     -185.750     811.421    -391.980
  H     -179.788     820.534    -396.267
  H     -180.746     814.570    -394.048
  H     -179.818     816.531    -391.454
  H     -181.996     818.337    -391.835
  H     -180.015     822.053    -394.500
  H     -183.630     816.583    -392.035
  H     -180.369     821.454    -392.909
  H     -182.202     815.157    -389.755
  H     -182.962     813.116    -391.023
  H     -184.270     814.050    -390.311
  P     -185.447     817.308    -390.316
  C     -186.265     816.259    -388.084
  O     -186.198     817.405    -388.912
  O     -185.961     815.916    -390.931
  O     -185.698     818.432    -391.260
  H     -186.526     816.077    -391.721
  H     -186.305     816.559    -387.029
  H     -185.389     815.594    -388.227
  H     -187.178     815.686    -388.319
  H     -182.877     810.588    -394.949
  H     -184.598     810.884    -395.002
  H     -183.862     810.276    -393.539

 3  4  5  6  7  8  9  10  11  12  23  26  30  31 0
 6-311+G(2d,p)
 ****
 33  35  36  37  38 0
 6-311+G(2d,p)
 ****
 1  2  13  14  15  16  17  18  19  20  21  22  24  25 0
 3-21G
 ****
 27  28  29  32  34  39  40  41  42  43  44  45  46  47  48  49 0
 3-21G
 ****


