%nproc=1
%NoSave
%Mem=1900MB
#P OB98/GEN NMR

erre ene a

0 1
  C        0.321      -6.229       1.091
  O        0.719      -5.145       0.265
  P        0.666      -3.670       0.893
  C       -1.746      -3.334       0.019
  O       -0.885      -3.340       1.150
  C       -2.742      -2.183       0.099
  O       -3.505      -2.134      -1.137
  C       -3.745      -2.297       1.258
  O       -3.893      -1.013       1.884
  C       -5.056      -2.623       0.562
  O       -6.184      -2.212       1.327
  C       -4.869      -1.863      -0.751
  N       -8.635      -0.226      -3.689
  C       -7.755       0.491      -2.903
  N       -7.946       1.827      -2.849
  N       -6.778      -0.052      -2.225
  C       -6.689      -1.395      -2.397
  C       -7.494      -2.213      -3.154
  C       -8.607      -1.605      -3.852
  O       -9.475      -2.196      -4.491
  N       -7.078      -3.519      -3.093
  C       -6.027      -3.492      -2.297
  N       -5.779      -2.234      -1.809
  O        1.051      -2.740      -0.351
  O        1.577      -3.435       2.047
  H       -6.965      -2.282       0.746
  H        1.821      -2.185      -0.122
  H       -9.381       0.241      -4.176
  H       -5.437      -4.358      -2.020
  H       -4.969      -0.783      -0.587
  H       -5.118      -3.703       0.400
  H       -8.655       2.313      -3.373
  H       -3.480      -3.045       2.011
  H       -7.298       2.371      -2.296
  H       -2.182      -1.241       0.166
  H       -2.294      -4.281      -0.020
  H       -1.138      -3.242      -0.887
  P       -3.633      -0.968       3.469
  C       -6.135      -1.568       3.867
  O       -4.778      -1.874       4.124
  O       -4.047       0.524       3.869
  O       -2.230      -1.299       3.861
  H       -3.589       0.797       4.686
  H       -6.247      -0.808       3.088
  H       -6.598      -1.201       4.786
  H       -6.650      -2.478       3.548
  H        0.407      -7.145       0.544
  H       -0.695      -6.090       1.396
  H        0.951      -6.269       1.955

 3  4  5  6  7  8  9  10  11  12  23  26  30  31  33  0
 6-311+G(2d,p)
 ****
 35  36  37  38 0
 6-311+G(2d,p)
 ****
 1  2  13  14  15  16  17  18  19  20  21  22  24  25  27  28  29 0
 3-21G
 ****
 32  34  39  40  41  42  43  44  45  46  47  48  49 0
 3-21G
 ****


