%nproc=1
%NoSave
%Mem=1900MB
#P OB98/GEN NMR

erre ene a

0 1
  C      422.285     485.792     262.378
  O      421.030     485.153     262.567
  P      421.029     483.674     263.169
  C      419.516     482.707     261.289
  O      419.668     482.971     262.674
  C      418.078     482.988     260.835
  O      417.196     482.008     261.458
  C      417.550     484.382     261.196
  O      416.685     484.781     260.132
  C      416.763     484.101     262.466
  O      415.856     485.123     262.814
  C      416.155     482.750     262.115
  N      412.402     482.457     265.595
  C      412.566     483.239     264.503
  N      413.590     483.261     263.619
  C      414.508     482.334     263.955
  C      414.499     481.487     265.034
  C      413.375     481.557     265.890
  N      413.220     480.765     266.997
  N      415.631     480.684     265.052
  C      416.309     481.068     263.995
  N      415.670     482.044     263.280
  O      420.774     483.904     264.730
  O      422.280     482.880     262.913
  H      415.306     484.866     263.572
  H      421.302     483.289     265.268
  H      411.762     483.963     264.329
  H      417.272     480.672     263.714
  H      415.312     482.844     261.419
  H      417.468     484.001     263.300
  H      418.346     485.128     261.311
  H      418.021     482.822     259.747
  H      419.746     481.654     261.093
  H      412.498     481.034     267.655
  H      414.041     480.242     267.319
  H      420.225     483.315     260.717
  P      416.159     486.295     260.068
  C      413.762     485.391     259.983
  O      414.735     486.184     259.339
  O      417.076     486.893     258.900
  O      416.222     487.046     261.356
  H      417.051     486.331     258.097
  H      412.807     485.471     259.447
  H      413.605     485.732     261.022
  H      414.063     484.337     259.983
  H      422.130     486.769     261.971
  H      422.881     485.215     261.702
  H      422.789     485.873     263.318

 3  4  5  6  7  8  9  10  11  12  22  25  29  30  31  32 0
 6-311+G(2d,p)
 ****
 33  36  37 0
 6-311+G(2d,p)
 ****
 1  2  13  14  15  16  17  18  19  20  21  23  24  26 0
 3-21G
 ****
 27  28  34  35  38  39  40  41  42  43  44  45  46  47  48 0
 3-21G
 ****


