%nproc=1
%NoSave
%Mem=1900MB
#P OB98/GEN NMR

erre ene a

0 1
  C     -325.205     -22.460     -33.830
  O     -324.537     -23.482     -34.572
  P     -325.382     -24.147     -35.768
  C     -325.330     -26.630     -35.023
  O     -324.861     -25.657     -35.942
  C     -324.607     -27.967     -35.216
  O     -324.914     -28.534     -36.525
  C     -323.076     -27.855     -35.122
  O     -322.612     -29.069     -34.514
  C     -322.672     -27.797     -36.585
  O     -321.293     -28.063     -36.799
  C     -323.649     -28.812     -37.168
  N     -321.497     -30.152     -41.593
  C     -321.131     -30.363     -40.310
  N     -321.757     -29.966     -39.181
  C     -322.883     -29.296     -39.480
  C     -323.386     -29.002     -40.739
  C     -322.639     -29.465     -41.836
  N     -322.991     -29.239     -43.146
  N     -324.560     -28.271     -40.638
  C     -324.709     -28.072     -39.341
  N     -323.771     -28.737     -38.604
  O     -324.838     -23.398     -37.072
  O     -326.858     -24.009     -35.602
  H     -321.121     -28.161     -37.756
  H     -325.453     -22.689     -37.338
  H     -320.205     -30.917     -40.169
  H     -325.474     -27.454     -38.886
  H     -323.370     -29.843     -36.919
  H     -322.879     -26.795     -36.976
  H     -322.730     -27.005     -34.530
  H     -324.977     -28.671     -34.459
  H     -326.405     -26.785     -35.154
  H     -322.387     -29.608     -43.865
  H     -323.830     -28.721     -43.368
  H     -325.197     -26.252     -34.004
  P     -322.128     -29.032     -32.986
  C     -319.684     -28.882     -33.753
  O     -320.636     -29.629     -33.020
  O     -322.947     -30.278     -32.391
  O     -322.343     -27.752     -32.254
  H     -322.836     -31.069     -32.945
  H     -318.706     -29.350     -33.631
  H     -319.642     -27.854     -33.384
  H     -319.946     -28.886     -34.816
  H     -324.554     -22.091     -33.065
  H     -326.089     -22.864     -33.382
  H     -325.473     -21.659     -34.487

 3  4  5  6  7  8  9  10  11  12  22  25  29  30  31  32 0
 6-311+G(2d,p)
 ****
 33  36  37 0
 6-311+G(2d,p)
 ****
 1  2  13  14  15  16  17  18  19  20  21  23  24  26 0
 3-21G
 ****
 27  28  34  35  38  39  40  41  42  43  44  45  46  47  48 0
 3-21G
 ****


