%nproc=1
%NoSave
%Mem=1900MB
#P OB98/GEN NMR

erre ene a

0 1
  C      -48.775    -540.275     322.147
  O      -49.963    -541.005     321.824
  P      -51.005    -540.272     320.847
  C      -52.859    -541.219     322.405
  O      -52.450    -540.935     321.074
  C      -54.200    -541.954     322.419
  O      -55.308    -541.085     322.055
  C      -54.263    -543.125     321.459
  O      -53.612    -544.250     322.023
  C      -55.768    -543.325     321.297
  O      -56.305    -544.123     322.370
  C      -56.297    -541.891     321.367
  N      -59.970    -539.836     318.515
  C      -60.051    -540.482     319.740
  N      -61.273    -540.578     320.288
  N      -59.023    -540.989     320.359
  C      -57.845    -540.827     319.697
  C      -57.633    -540.187     318.497
  C      -58.793    -539.630     317.815
  O      -58.773    -539.028     316.744
  N      -56.306    -540.160     318.168
  C      -55.733    -540.905     319.104
  N      -56.617    -541.276     320.088
  O      -50.567    -540.778     319.396
  O      -50.959    -538.787     320.947
  H      -57.250    -543.917     322.467
  H      -50.165    -540.044     318.888
  H      -60.803    -539.484     318.079
  H      -54.687    -541.169     319.125
  H      -57.218    -541.834     321.966
  H      -56.006    -543.848     320.364
  H      -62.123    -540.201     319.864
  H      -53.805    -542.851     320.496
  H      -61.355    -541.039     321.193
  H      -54.384    -542.290     323.450
  H      -52.945    -540.285     322.976
  H      -52.080    -541.817     322.897
  P      -52.594    -545.078     321.102
  C      -53.130    -547.356     322.241
  O      -52.147    -546.388     321.929
  O      -51.283    -544.171     321.072
  O      -53.103    -545.337     319.718
  H      -50.940    -544.110     320.173
  H      -52.654    -548.334     322.307
  H      -53.929    -547.395     321.493
  H      -53.576    -547.125     323.224
  H      -48.163    -540.861     322.800
  H      -49.040    -539.359     322.633
  H      -48.234    -540.059     321.249

 3  4  5  6  7  8  9  10  11  12  23  26  30  31 0
 6-311+G(2d,p)
 ****
 33  35  36  37  38 0
 6-311+G(2d,p)
 ****
 1  2  13  14  15  16  17  18  19  20  21  22  24  25 0
 3-21G
 ****
 27  28  29  32  34  39  40  41  42  43  44  45  46  47  48  49 0
 3-21G
 ****


