%nproc=1
%NoSave
%Mem=1900MB
#P OB98/GEN NMR

erre ene a

0 1
  C       30.739    -153.213     526.659
  O       32.068    -152.743     526.421
  P       32.309    -151.157     526.536
  C       32.684    -150.942     529.096
  O       33.261    -150.870     527.800
  C       33.756    -151.060     530.193
  O       34.444    -152.340     530.115
  C       34.817    -149.965     530.127
  O       35.227    -149.673     531.475
  C       35.974    -150.649     529.410
  O       37.214    -149.980     529.667
  C       35.866    -152.074     529.990
  N       36.538    -153.084     529.172
  C       37.883    -153.324     529.443
  O       38.480    -152.654     530.295
  N       38.539    -154.293     528.712
  C       37.924    -154.916     527.766
  N       38.629    -155.860     527.072
  C       36.516    -154.645     527.398
  C       35.894    -153.727     528.139
  O       30.876    -150.605     527.012
  O       32.745    -150.520     525.258
  H       37.928    -150.517     529.260
  H       30.612    -149.862     526.445
  H       36.054    -155.175     526.586
  H       34.854    -153.461     527.954
  H       36.291    -152.118     530.998
  H       35.801    -150.651     528.329
  H       34.475    -149.047     529.638
  H       33.248    -151.034     531.165
  H       39.592    -156.018     527.358
  H       32.006    -151.803     529.164
  H       38.248    -156.404     526.320
  H       32.062    -150.049     529.258
  P       35.275    -148.144     531.942
  C       32.813    -148.125     532.704
  O       34.176    -148.033     533.113
  O       34.524    -147.411     530.722
  O       36.616    -147.527     532.212
  H       34.558    -146.450     530.852
  H       32.182    -148.160     533.597
  H       32.655    -149.041     532.117
  H       32.539    -147.255     532.117
  H       30.713    -154.277     526.553
  H       30.071    -152.767     525.952
  H       30.439    -152.946     527.651

 3  4  5  6  7  8  9  10  11  12  13  21  23  27  28  29  30  32 0
 6-311+G(2d,p)
 ****
 34  35 0
 6-311+G(2d,p)
 ****
 1  2  14  15  16  17  18  19  20  22  24  25  26 0
 3-21G
 ****
 31  33  36  37  38  39  40  41  42  43  44  45  46 0
 3-21G
 ****


