%nproc=1
%NoSave
%Mem=1900MB
#P OB98/GEN NMR

erre ene a

0 1
  C      126.272       3.708      83.578
  O      126.762       2.414      83.268
  P      126.750       1.307      84.433
  C      129.320       1.206      84.016
  O      128.128       0.495      84.310
  C      130.081       0.528      82.876
  O      130.721      -0.668      83.393
  C      129.213       0.099      81.688
  O      130.025       0.213      80.512
  C      128.938      -1.365      81.975
  O      128.570      -2.095      80.810
  C      130.265      -1.784      82.600
  N      132.616      -5.818      84.543
  C      133.070      -4.884      83.630
  N      134.352      -5.015      83.227
  N      132.336      -3.911      83.158
  C      131.080      -3.899      83.666
  C      130.503      -4.787      84.541
  C      131.337      -5.836      85.085
  O      131.002      -6.631      85.959
  N      129.181      -4.499      84.754
  C      128.982      -3.390      84.070
  N      130.115      -2.962      83.433
  O      125.650       0.266      83.922
  O      126.463       1.818      85.809
  H      127.706      -1.756      80.505
  H      124.772       0.466      84.302
  H      133.234      -6.534      84.886
  H      128.050      -2.853      84.005
  H      131.032      -2.006      81.846
  H      128.118      -1.451      82.698
  H      134.983      -5.721      83.573
  H      128.299       0.688      81.578
  H      134.720      -4.324      82.583
  H      130.877       1.206      82.542
  H      129.956       1.211      84.907
  H      129.076       2.241      83.760
  P      129.616       1.314      79.422
  C      128.444      -0.053      77.561
  O      129.621       0.602      77.990
  O      130.912       2.258      79.367
  O      128.396       2.107      79.759
  H      130.641       3.174      79.169
  H      128.458      -0.125      76.470
  H      127.545       0.491      77.865
  H      128.416      -1.062      77.981
  H      126.342       4.333      82.712
  H      126.855       4.130      84.370
  H      125.250       3.638      83.886

 3  4  5  6  7  8  9  10  11  12  23  26  30  31 0
 6-311+G(2d,p)
 ****
 33  35  36  37  38 0
 6-311+G(2d,p)
 ****
 1  2  13  14  15  16  17  18  19  20  21  22  24  25 0
 3-21G
 ****
 27  28  29  32  34  39  40  41  42  43  44  45  46  47  48  49 0
 3-21G
 ****


