%nproc=1
%NoSave
%Mem=1900MB
#P OB98/GEN NMR

erre ene a

0 1
  C      -91.367     143.934     236.174
  O      -91.356     142.718     235.460
  P      -92.308     141.485     235.796
  C      -93.600     140.585     233.709
  O      -92.415     140.554     234.495
  C      -93.529     139.562     232.565
  O      -92.484     139.970     231.647
  C      -93.151     138.165     233.081
  O      -93.882     137.105     232.476
  C      -91.637     138.143     232.924
  O      -91.085     136.835     232.904
  C      -91.443     138.970     231.658
  N      -86.678     138.671     229.924
  C      -87.765     137.877     229.619
  N      -87.503     136.760     228.905
  N      -88.984     138.141     230.010
  C      -89.072     139.227     230.811
  C      -88.067     140.091     231.181
  C      -86.731     139.807     230.715
  O      -85.718     140.418     231.054
  N      -88.511     141.046     232.057
  C      -89.779     140.742     232.246
  N      -90.157     139.626     231.536
  O      -93.563     141.791     236.545
  O      -91.365     140.600     236.763
  H      -91.498     136.354     232.163
  H      -91.949     140.171     237.419
  H      -85.747     138.369     229.659
  H      -90.458     141.274     232.904
  H      -91.557     138.360     230.761
  H      -91.209     138.654     233.795
  H      -86.558     136.458     228.717
  H      -93.400     138.069     234.144
  H      -88.226     136.047     228.882
  H      -94.477     139.567     232.017
  H      -93.673     141.600     233.303
  H      -94.480     140.409     234.331
  P      -94.952     136.123     233.138
  C      -96.498     135.770     231.124
  O      -95.553     135.177     231.994
  O      -96.194     137.054     233.519
  O      -94.462     135.394     234.348
  H      -96.560     136.775     234.382
  H      -97.027     134.975     230.589
  H      -95.986     136.405     230.402
  H      -97.230     136.361     231.687
  H      -90.640     144.599     235.757
  H      -91.132     143.747     237.201
  H      -92.338     144.379     236.106

 3  4  5  6  7  8  9  10  11  12  23  26  30  31 0
 6-311+G(2d,p)
 ****
 33  35  36  37  38 0
 6-311+G(2d,p)
 ****
 1  2  13  14  15  16  17  18  19  20  21  22  24  25 0
 3-21G
 ****
 27  28  29  32  34  39  40  41  42  43  44  45  46  47  48  49 0
 3-21G
 ****


