%nproc=1
%NoSave
%Mem=1900MB
#P OB98/GEN NMR

erre ene a

0 1
  C      -27.146     -33.825     -27.788
  O      -27.803     -34.809     -27.019
  H      -27.756     -33.606     -28.668
  H      -26.175     -34.205     -28.118
  H      -27.005     -32.902     -27.220
  P      -27.378     -35.001     -25.489
  C      -25.984     -37.049     -26.211
  O      -26.009     -35.840     -25.462
  C      -25.190     -38.145     -25.499
  O      -23.823     -37.722     -25.301
  C      -25.744     -38.452     -24.108
  O      -26.826     -39.364     -24.074
  C      -24.519     -39.031     -23.407
  O      -24.393     -40.438     -23.673
  C      -23.364     -38.258     -24.048
  N      -21.131     -36.945     -19.644
  C      -21.541     -38.193     -20.073
  N      -21.388     -39.206     -19.193
  N      -22.067     -38.414     -21.249
  C      -22.246     -37.291     -21.984
  C      -21.894     -36.000     -21.659
  C      -21.260     -35.774     -20.376
  O      -20.886     -34.688     -19.945
  N      -22.229     -35.119     -22.660
  C      -22.849     -35.865     -23.552
  N      -22.861     -37.194     -23.198
  O      -28.444     -36.062     -24.932
  O      -27.380     -33.751     -24.662
  H      -23.623     -40.776     -23.181
  H      -28.555     -35.949     -23.971
  H      -20.707     -36.839     -18.740
  H      -23.282     -35.501     -24.477
  H      -22.517     -38.917     -24.274
  H      -24.585     -38.920     -22.320
  H      -21.098     -39.065     -18.238
  H      -26.027     -37.526     -23.597
  H      -21.911     -40.068     -19.361
  H      -25.164     -39.040     -26.132
  H      -25.519     -36.814     -27.171
  H      -27.003     -37.387     -26.418
  P      -28.075     -39.091     -23.110
  C      -27.288     -40.888     -21.400
  O      -27.636     -39.541     -21.637
  O      -29.121     -40.216     -23.558
  O      -28.656     -37.722     -23.207
  H      -29.761     -39.847     -24.194
  H      -27.023     -41.012     -20.371
  H      -26.456     -41.155     -22.018
  H      -28.121     -41.518     -21.632

 6  7  8  9  10  11  12  13  14  15  26  29  33  34 0
 6-311+G(2d,p)
 ****
 36  38  39  40  41 0
 6-311+G(2d,p)
 ****
 1  2  3  4  5  16  17  18  19  20  21  22  23  24  25 0
 3-21G
 ****
 27  28  30  31  32  35  37  42  43  44  45  46  47 0
 3-21G
 ****
 48  49 0
 3-21G
 ****


