%nproc=1
%NoSave
%Mem=1900MB
#P OB98/GEN NMR

erre ene a

0 1
  C      129.106     384.041     684.163
  O      128.955     383.029     685.136
  P      127.877     381.864     684.940
  C      128.221     380.857     687.279
  O      127.298     381.460     686.375
  C      127.781     381.087     688.730
  O      126.465     380.541     688.960
  C      128.677     380.412     689.759
  O      129.919     381.069     689.896
  C      127.774     380.456     690.988
  O      127.836     381.746     691.616
  C      126.384     380.221     690.369
  N      125.905     378.861     690.579
  C      124.942     378.703     691.580
  O      124.600     379.656     692.280
  N      124.391     377.454     691.766
  C      124.856     376.441     691.103
  N      124.239     375.239     691.284
  C      125.986     376.540     690.154
  C      126.442     377.777     689.926
  O      128.332     380.713     684.100
  O      126.631     382.601     684.254
  H      126.357     382.094     683.466
  H      128.735     381.821     692.002
  H      126.378     375.660     689.675
  H      127.253     377.952     689.230
  H      125.662     380.923     690.795
  H      128.069     379.721     691.746
  H      128.845     379.364     689.468
  H      127.741     382.171     688.905
  H      123.455     375.212     691.929
  H      129.207     381.297     687.121
  H      124.292     374.492     690.601
  H      128.283     379.783     687.058
  P      131.233     380.145     689.933
  C      132.955     382.075     690.077
  O      132.366     380.961     690.713
  O      131.728     380.163     688.408
  O      131.000     378.751     690.411
  H      132.094     379.288     688.173
  H      133.427     382.706     690.837
  H      132.207     382.665     689.540
  H      133.721     381.732     689.375
  H      129.871     384.722     684.473
  H      128.182     384.569     684.051
  H      129.380     383.599     683.228

 3  4  5  6  7  8  9  10  11  12  13  24  27  28  29  30  32 0
 6-311+G(2d,p)
 ****
 34  35 0
 6-311+G(2d,p)
 ****
 1  2  14  15  16  17  18  19  20  21  22  23  25  26 0
 3-21G
 ****
 31  33  36  37  38  39  40  41  42  43  44  45  46 0
 3-21G
 ****


