%nproc=1
%NoSave
%Mem=1900MB
#P OB98/GEN NMR

erre ene a

0 1
  C      -79.968    -691.156     -51.860
  O      -78.551    -691.070     -52.035
  P      -77.708    -692.425     -51.974
  C      -77.429    -692.802     -49.411
  O      -78.070    -693.206     -50.601
  C      -77.485    -693.884     -48.327
  O      -76.674    -695.032     -48.708
  C      -76.977    -693.436     -46.949
  O      -77.666    -694.166     -45.949
  C      -75.526    -693.896     -46.974
  O      -74.971    -693.961     -45.659
  C      -75.677    -695.240     -47.698
  N      -71.565    -698.086     -46.944
  C      -72.632    -697.811     -46.108
  N      -72.614    -698.404     -44.884
  N      -73.626    -697.014     -46.416
  C      -73.512    -696.515     -47.686
  C      -72.527    -696.702     -48.606
  C      -71.417    -697.554     -48.231
  O      -70.450    -697.814     -48.919
  N      -72.750    -695.999     -49.763
  C      -73.919    -695.399     -49.535
  N      -74.428    -695.685     -48.311
  O      -76.197    -691.898     -51.714
  O      -77.772    -693.245     -53.224
  H      -75.541    -694.570     -45.138
  H      -75.664    -692.008     -52.508
  H      -70.825    -698.679     -46.634
  H      -74.410    -694.713     -50.219
  H      -76.027    -696.024     -47.030
  H      -74.911    -693.198     -47.567
  H      -71.906    -699.070     -44.594
  H      -77.067    -692.361     -46.752
  H      -73.405    -698.241     -44.270
  H      -78.533    -694.237     -48.254
  H      -77.906    -691.870     -49.013
  H      -76.393    -692.512     -49.628
  P      -78.979    -693.480     -45.337
  C      -77.468    -691.995     -43.815
  O      -78.529    -692.049     -44.773
  O      -79.250    -694.342     -43.981
  O      -80.162    -693.487     -46.228
  H      -80.197    -694.303     -43.737
  H      -76.549    -691.656     -44.313
  H      -77.308    -692.961     -43.343
  H      -77.753    -691.252     -43.046
  H      -80.395    -690.177     -51.925
  H      -80.184    -691.576     -50.900
  H      -80.385    -691.779     -52.624

 3  4  5  6  7  8  9  10  11  12  23  26  30  31 0
 6-311+G(2d,p)
 ****
 33  35  36  37  38 0
 6-311+G(2d,p)
 ****
 1  2  13  14  15  16  17  18  19  20  21  22  24  25 0
 3-21G
 ****
 27  28  29  32  34  39  40  41  42  43  44  45  46  47  48  49 0
 3-21G
 ****


