%nproc=1
%NoSave
%Mem=1900MB
#P OB98/GEN NMR

erre ene a

0 1
  C      153.479     439.140     150.591
  O      154.068     440.057     149.693
  H      154.178     438.317     150.759
  H      152.561     438.735     150.160
  H      153.260     439.611     151.553
  P      153.387     441.496     149.498
  C      151.093     442.362     148.701
  O      151.879     441.221     149.020
  C      149.919     441.976     147.798
  O      150.394     441.855     146.427
  C      149.256     440.641     148.173
  O      147.868     440.735     147.817
  C      149.965     439.672     147.248
  O      149.262     438.457     147.125
  C      150.083     440.520     145.979
  N      151.084     440.002     145.046
  C      150.719     438.898     144.291
  O      149.623     438.339     144.399
  N      151.663     438.415     143.431
  C      152.937     438.888     143.301
  O      153.756     438.398     142.532
  C      153.284     440.035     144.159
  C      152.354     440.538     144.975
  O      154.146     442.461     148.650
  O      153.184     442.042     150.990
  H      148.489     438.570     146.529
  H      153.237     443.017     150.999
  H      151.406     437.622     142.865
  H      154.293     440.427     144.083
  H      152.583     441.376     145.621
  H      149.120     440.561     145.452
  H      150.962     439.434     147.636
  H      149.365     440.386     149.229
  H      149.185     442.795     147.808
  H      151.736     443.082     148.182
  H      150.718     442.816     149.624
  P      146.781     441.395     148.799
  C      146.273     441.440     151.327
  O      146.983     440.791     150.275
  O      145.374     441.318     148.299
  O      147.248     442.920     148.956
  H      146.469     443.483     149.142
  H      146.486     440.952     152.255
  H      145.222     441.391     151.131
  H      146.578     442.464     151.384

 6  7  8  9  10  11  12  13  14  15  16  26  31  32  33  34  35 0
 6-311+G(2d,p)
 ****
 36  37 0
 6-311+G(2d,p)
 ****
 1  2  3  4  5  17  18  19  20  21  22  23  24  25 0
 3-21G
 ****
 27  28  29  30  38  39  40  41  42  43  44  45 0
 3-21G
 ****


