%nproc=1
%NoSave
%Mem=1900MB
#P OB98/GEN NMR

erre ene a

0 1
  C      625.319    -229.787      54.259
  O      626.734    -229.563      54.217
  P      627.395    -228.185      54.707
  C      628.043    -227.044      56.924
  O      627.596    -228.247      56.297
  C      628.874    -227.334      58.182
  O      628.061    -227.940      59.204
  C      630.048    -228.283      57.958
  O      631.134    -227.597      57.355
  C      630.302    -228.782      59.375
  O      631.081    -227.820      60.114
  C      628.883    -228.870      59.942
  N      628.652    -233.422      62.264
  C      629.267    -232.265      62.595
  N      629.287    -231.097      61.922
  C      628.549    -231.186      60.802
  C      627.870    -232.298      60.330
  C      627.939    -233.461      61.113
  N      627.321    -234.643      60.760
  N      627.251    -232.016      59.127
  C      627.539    -230.747      58.891
  N      628.322    -230.204      59.874
  O      626.686    -226.964      54.222
  O      628.895    -228.228      54.142
  H      630.622    -226.964      60.055
  H      629.218    -227.320      53.994
  H      629.820    -232.285      63.532
  H      627.201    -230.185      58.026
  H      628.844    -228.550      60.990
  H      630.852    -229.728      59.397
  H      629.736    -229.123      57.323
  H      629.228    -226.372      58.573
  H      627.160    -226.452      57.200
  H      627.450    -235.444      61.359
  H      626.829    -234.692      59.880
  H      628.639    -226.479      56.204
  P      632.110    -228.372      56.345
  C      631.679    -229.517      54.090
  O      631.387    -228.401      54.915
  O      632.630    -229.684      56.824
  O      633.305    -227.330      56.107
  H      634.131    -227.816      55.917
  H      632.638    -229.354      53.593
  H      630.899    -229.601      53.330
  H      631.705    -230.438      54.668
  H      625.102    -230.767      53.887
  H      624.824    -229.057      53.652
  H      624.975    -229.704      55.269

 3  4  5  6  7  8  9  10  11  12  22  25  29  30  31  32 0
 6-311+G(2d,p)
 ****
 33  36  37 0
 6-311+G(2d,p)
 ****
 1  2  13  14  15  16  17  18  19  20  21  23  24  26 0
 3-21G
 ****
 27  28  34  35  38  39  40  41  42  43  44  45  46  47  48 0
 3-21G
 ****


