%nproc=1
%NoSave
%Mem=1900MB
#P OB98/GEN NMR

erre ene a

0 1
  C      375.873     269.892    -364.034
  O      376.173     271.069    -363.279
  P      377.429     270.985    -362.277
  C      379.606     271.331    -363.661
  O      378.582     271.927    -362.872
  C      380.985     271.661    -363.090
  O      382.000     270.825    -363.677
  C      381.444     273.088    -363.361
  O      380.855     274.010    -362.453
  C      382.941     272.966    -363.108
  O      383.210     273.057    -361.697
  C      383.251     271.550    -363.622
  N      387.538     272.086    -366.273
  C      387.322     272.170    -364.911
  N      388.414     272.405    -364.148
  N      386.150     272.039    -364.354
  C      385.159     271.777    -365.240
  C      385.244     271.668    -366.607
  C      386.547     271.850    -367.218
  O      386.785     271.816    -368.422
  N      384.027     271.386    -367.170
  C      383.210     271.293    -366.140
  N      383.846     271.541    -364.950
  O      377.991     269.505    -362.532
  O      377.079     271.207    -360.844
  H      382.997     273.969    -361.419
  H      378.453     269.179    -361.738
  H      388.462     272.204    -366.655
  H      382.153     271.051    -366.204
  H      383.917     271.004    -362.944
  H      383.519     273.760    -363.593
  H      389.353     272.445    -364.506
  H      381.266     273.369    -364.409
  H      388.276     272.436    -363.145
  H      380.962     271.474    -362.009
  H      379.542     271.693    -364.691
  H      379.444     270.249    -363.692
  P      380.309     275.388    -363.063
  C      378.203     274.417    -364.225
  O      378.722     275.208    -363.175
  O      380.814     275.342    -364.585
  O      380.784     276.613    -362.350
  H      380.950     276.245    -364.921
  H      378.785     273.499    -364.353
  H      378.210     274.991    -365.156
  H      377.172     274.141    -363.985
  H      375.023     270.075    -364.658
  H      375.657     269.085    -363.366
  H      376.714     269.635    -364.644

 3  4  5  6  7  8  9  10  11  12  23  26  30  31  33  0
 6-311+G(2d,p)
 ****
 35  36  37  38 0
 6-311+G(2d,p)
 ****
 1  2  13  14  15  16  17  18  19  20  21  22  24  25  27  28  29 0
 3-21G
 ****
 32  34  39  40  41  42  43  44  45  46  47  48  49 0
 3-21G
 ****


