%nproc=1
%NoSave
%Mem=1900MB
#P OB98/GEN NMR

erre ene a

0 1
  C     -395.929     -87.091     152.094
  O     -394.815     -86.269     151.792
  H     -395.681     -88.143     151.933
  H     -396.196     -86.945     153.143
  H     -396.780     -86.807     151.468
  P     -394.199     -86.421     150.318
  C     -392.018     -87.816     150.436
  O     -393.433     -87.832     150.288
  C     -391.645     -87.751     151.914
  O     -392.502     -88.620     152.687
  C     -390.227     -88.204     152.234
  O     -389.269     -87.194     151.941
  C     -390.343     -88.453     153.732
  O     -390.240     -87.204     154.439
  C     -391.762     -89.017     153.864
  N     -392.456     -92.993     157.050
  C     -392.475     -91.658     157.259
  N     -392.274     -90.663     156.372
  C     -392.045     -91.154     155.142
  C     -391.993     -92.492     154.776
  C     -392.207     -93.442     155.794
  N     -392.162     -94.802     155.571
  N     -391.746     -92.619     153.421
  C     -391.648     -91.384     152.981
  N     -391.814     -90.465     153.981
  O     -393.008     -85.347     150.302
  O     -395.157     -86.187     149.195
  H     -389.401     -86.792     154.169
  H     -392.948     -84.958     149.410
  H     -392.689     -91.345     158.276
  H     -391.469     -91.113     151.949
  H     -392.287     -88.588     154.730
  H     -389.562     -89.110     154.119
  H     -389.988     -89.150     151.731
  H     -391.811     -86.723     152.253
  H     -391.605     -86.941     149.924
  H     -392.514     -95.416     156.289
  H     -391.980     -95.119     154.631
  H     -391.609     -88.725     149.979
  P     -387.826     -87.676     151.407
  C     -385.833     -87.461     153.047
  O     -387.024     -88.162     152.703
  O     -387.112     -86.299     151.014
  O     -387.867     -88.634     150.258
  H     -386.429     -86.470     150.330
  H     -385.407     -87.893     153.928
  H     -386.065     -86.433     153.230
  H     -385.133     -87.531     152.241

 6  7  8  9  10  11  12  13  14  15  25  28  32  33  34  35 0
 6-311+G(2d,p)
 ****
 36  39  40 0
 6-311+G(2d,p)
 ****
 1  2  3  4  5  16  17  18  19  20  21  22  23  24 0
 3-21G
 ****
 26  27  29  30  31  37  38  41  42  43  44  45  46  47  48 0
 3-21G
 ****


