%nproc=1
%NoSave
%Mem=1900MB
#P OB98/GEN NMR

erre ene a

0 1
  C      155.130      62.492     -91.993
  O      154.805      63.570     -91.138
  H      154.203      61.998     -92.299
  H      155.756      61.768     -91.465
  H      155.647      62.848     -92.889
  P      155.979      64.534     -90.622
  C      156.511      62.912     -88.696
  O      157.023      63.604     -89.828
  C      157.649      62.502     -87.759
  O      158.618      61.735     -88.518
  C      158.381      63.688     -87.119
  O      158.726      63.343     -85.778
  C      159.644      63.814     -87.956
  O      160.718      64.414     -87.226
  C      159.906      62.358     -88.343
  N      164.597      61.930     -90.180
  C      164.146      61.915     -88.875
  N      165.085      61.794     -87.905
  N      162.886      62.015     -88.544
  C      162.056      62.117     -89.609
  C      162.376      62.151     -90.946
  C      163.782      62.049     -91.304
  O      164.242      62.071     -92.441
  N      161.255      62.289     -91.725
  C      160.261      62.351     -90.863
  N      160.691      62.261     -89.566
  O      155.532      65.746     -89.868
  O      156.773      64.923     -91.955
  H      161.492      64.445     -87.829
  H      156.515      65.810     -92.263
  H      165.582      61.862     -90.376
  H      159.211      62.467     -91.122
  H      160.459      61.813     -87.565
  H      159.443      64.429     -88.839
  H      166.071      61.693     -88.089
  H      157.787      64.609     -87.129
  H      164.774      61.755     -86.946
  H      157.243      61.834     -86.993
  H      155.981      62.023     -89.049
  H      155.803      63.561     -88.165
  P      157.890      63.993     -84.573
  C      159.301      66.042     -83.893
  O      158.144      65.580     -84.582
  O      158.049      63.331     -83.246
  O      156.373      63.877     -85.100
  H      155.780      63.788     -84.325
  H      159.360      67.108     -83.970
  H      160.174      65.604     -84.329
  H      159.238      65.762     -82.862

 6  7  8  9  10  11  12  13  14  15  26  29  33  34 0
 6-311+G(2d,p)
 ****
 36  38  39  40  41 0
 6-311+G(2d,p)
 ****
 1  2  3  4  5  16  17  18  19  20  21  22  23  24  25 0
 3-21G
 ****
 27  28  30  31  32  35  37  42  43  44  45  46  47 0
 3-21G
 ****
 48  49 0
 3-21G
 ****


