%nproc=1
%NoSave
%Mem=1900MB
#P OB98/GEN NMR

erre ene a

0 1
  C       51.722    -490.669     367.231
  O       51.744    -491.506     368.372
  P       53.112    -492.190     368.843
  C       53.878    -494.638     369.315
  O       52.873    -493.775     368.819
  C       53.288    -495.990     369.738
  O       52.326    -495.740     370.785
  C       52.543    -496.733     368.637
  O       52.418    -498.106     369.019
  C       51.178    -496.070     368.691
  O       50.161    -496.871     368.090
  C       50.997    -495.797     370.206
  N       50.279    -494.529     370.447
  C       48.961    -494.456     370.005
  O       48.372    -495.414     369.505
  N       48.370    -493.232     370.080
  C       48.991    -492.083     370.502
  O       48.565    -490.949     370.276
  C       50.291    -492.265     371.167
  C       50.885    -493.465     371.090
  O       53.165    -491.838     370.405
  O       54.329    -491.719     368.126
  H       50.121    -497.716     368.594
  H       53.724    -491.048     370.550
  H       47.470    -493.142     369.628
  H       50.744    -491.410     371.651
  H       51.857    -493.617     371.533
  H       50.428    -496.607     370.693
  H       51.220    -495.124     368.143
  H       52.994    -496.653     367.646
  H       54.094    -496.613     370.157
  H       54.382    -494.152     370.154
  H       54.639    -494.798     368.550
  P       51.998    -499.158     367.885
  C       49.839    -500.474     367.393
  O       50.405    -499.323     367.990
  O       52.773    -500.434     367.859
  O       52.178    -498.330     366.527
  H       52.238    -498.939     365.768
  H       48.934    -500.744     367.932
  H       50.537    -501.321     367.418
  H       49.590    -500.253     366.355
  H       50.728    -490.307     367.074
  H       52.038    -491.226     366.374
  H       52.383    -489.842     367.383

 3  4  5  6  7  8  9  10  11  12  13  23  28  29  30  31  32 0
 6-311+G(2d,p)
 ****
 33  34 0
 6-311+G(2d,p)
 ****
 1  2  14  15  16  17  18  19  20  21  22  24  25  26  27 0
 3-21G
 ****
 35  36  37  38  39  40  41  42  43  44  45 0
 3-21G
 ****


