%nproc=1
%NoSave
%Mem=1900MB
#P OB98/GEN NMR

erre ene a

0 1
  C      119.656    -190.610    -131.108
  O      120.166    -191.933    -131.015
  P      121.487    -192.163    -130.132
  C      120.055    -193.551    -128.484
  O      120.985    -192.488    -128.639
  C      120.363    -194.361    -127.232
  O      119.191    -195.153    -126.882
  C      121.546    -195.332    -127.379
  O      122.362    -195.264    -126.200
  C      120.887    -196.699    -127.407
  O      121.766    -197.726    -126.965
  C      119.689    -196.446    -126.487
  N      116.193    -198.926    -123.817
  C      116.910    -197.791    -123.493
  N      116.704    -197.282    -122.259
  N      117.756    -197.209    -124.301
  C      117.837    -197.811    -125.514
  C      117.173    -198.933    -125.957
  C      116.286    -199.599    -125.028
  O      115.690    -200.657    -125.224
  N      117.504    -199.230    -127.254
  C      118.369    -198.294    -127.598
  N      118.641    -197.440    -126.557
  O      122.097    -190.687    -130.016
  O      122.478    -193.114    -130.705
  H      122.062    -197.479    -126.068
  H      123.017    -190.684    -130.344
  H      115.569    -199.343    -123.149
  H      118.848    -198.216    -128.566
  H      120.017    -196.379    -125.441
  H      120.568    -196.924    -128.431
  H      116.041    -197.659    -121.601
  H      122.163    -195.153    -128.266
  H      117.203    -196.438    -122.010
  H      120.534    -193.667    -126.399
  H      120.109    -194.207    -129.359
  H      119.046    -193.131    -128.421
  P      123.855    -194.705    -126.409
  C      123.102    -192.528    -125.196
  O      123.738    -193.113    -126.315
  O      124.137    -194.979    -127.959
  O      124.869    -195.343    -125.520
  H      125.098    -195.048    -128.125
  H      122.888    -193.261    -124.413
  H      122.161    -192.075    -125.520
  H      123.750    -191.749    -124.784
  H      118.781    -190.608    -131.723
  H      120.398    -189.971    -131.541
  H      119.406    -190.255    -130.130

 3  4  5  6  7  8  9  10  11  12  23  26  30  31  33  0
 6-311+G(2d,p)
 ****
 35  36  37  38 0
 6-311+G(2d,p)
 ****
 1  2  13  14  15  16  17  18  19  20  21  22  24  25  27  28  29 0
 3-21G
 ****
 32  34  39  40  41  42  43  44  45  46  47  48  49 0
 3-21G
 ****


