%nproc=1
%NoSave
%Mem=1900MB
#P OB98/GEN NMR

erre ene a

0 1
  C      114.652     265.711      15.563
  O      113.487     265.934      14.786
  H      115.104     266.677      15.804
  H      115.367     265.108      15.000
  H      114.386     265.201      16.497
  P      112.652     264.631      14.365
  C      114.303     263.970      12.454
  O      113.710     263.622      13.699
  C      113.904     262.954      11.379
  O      114.495     263.370      10.108
  C      114.403     261.527      11.660
  O      113.476     260.592      11.076
  C      115.706     261.492      10.873
  O      116.139     260.168      10.687
  C      115.271     262.250       9.623
  N      118.029     261.334       5.433
  C      116.916     260.747       5.926
  N      116.237     261.059       7.049
  C      116.797     262.112       7.670
  C      117.933     262.811       7.286
  C      118.568     262.380       6.107
  N      119.710     262.959       5.615
  N      118.211     263.813       8.199
  C      117.263     263.723       9.111
  N      116.388     262.710       8.828
  O      111.781     265.143      13.119
  O      111.801     264.035      15.432
  H      116.895     260.127      10.066
  H      110.910     265.452      13.427
  H      116.524     259.920       5.344
  H      117.165     264.351       9.985
  H      114.623     261.646       8.973
  H      116.502     262.026      11.406
  H      114.525     261.311      12.725
  H      112.817     262.976      11.242
  H      115.394     263.977      12.575
  H      113.964     264.969      12.157
  H      120.121     262.570       4.779
  H      120.140     263.713       6.127
  P      112.828     259.454      12.010
  C      114.330     257.446      11.283
  O      113.906     258.310      12.328
  O      111.839     258.718      10.988
  O      112.069     259.957      13.195
  H      110.970     258.575      11.414
  H      115.045     256.748      11.665
  H      114.778     258.024      10.502
  H      113.486     256.915      10.894

 6  7  8  9  10  11  12  13  14  15  25  28  32  33  34  35 0
 6-311+G(2d,p)
 ****
 36  37  40 0
 6-311+G(2d,p)
 ****
 1  2  3  4  5  16  17  18  19  20  21  22  23  24 0
 3-21G
 ****
 26  27  29  30  31  38  39 41  42  43  44  45  46  47  48 0
 3-21G
 ****


