%nproc=1
%NoSave
%Mem=1900MB
#P OB98/GEN NMR

erre ene a

0 1
  C     -240.354    -545.668     104.286
  O     -241.211    -546.340     103.384
  H     -239.317    -545.868     103.997
  H     -240.513    -546.042     105.298
  H     -240.520    -544.587     104.256
  P     -242.776    -546.002     103.408
  C     -243.185    -547.334     105.580
  O     -243.235    -546.063     104.945
  C     -244.429    -547.555     106.448
  O     -245.601    -547.587     105.574
  C     -244.414    -548.876     107.243
  O     -245.127    -548.651     108.465
  C     -245.198    -549.787     106.315
  O     -245.597    -550.970     106.955
  C     -246.297    -548.821     105.869
  N     -247.054    -549.289     104.716
  C     -247.970    -550.313     104.926
  O     -248.194    -550.820     106.024
  N     -248.637    -550.753     103.811
  C     -248.468    -550.287     102.542
  O     -249.109    -550.704     101.581
  C     -247.465    -549.225     102.376
  C     -246.812    -548.781     103.454
  O     -243.624    -546.787     102.462
  O     -242.830    -544.434     103.082
  H     -243.023    -544.303     102.135
  H     -246.296    -551.421     106.437
  H     -249.309    -551.497     103.947
  H     -247.292    -548.850     101.378
  H     -246.063    -548.000     103.372
  H     -246.986    -548.610     106.690
  H     -244.574    -550.084     105.465
  H     -243.400    -549.225     107.469
  H     -244.555    -546.693     107.113
  H     -242.287    -547.367     106.208
  H     -243.116    -548.117     104.819
  P     -244.401    -548.433     109.880
  C     -244.179    -550.882     110.654
  O     -243.498    -549.713     110.222
  O     -245.337    -548.063     110.986
  O     -243.332    -547.262     109.640
  H     -243.273    -546.711     110.443
  H     -243.468    -551.658     110.848
  H     -244.857    -551.202     109.891
  H     -244.725    -550.667     111.549

 6  7  8  9  10  11  12  13  14  15  16  27  31  32  33  34  35 0
 6-311+G(2d,p)
 ****
 36  37 0
 6-311+G(2d,p)
 ****
 1  2  3  4  5  17  18  19  20  21  22  23  24  25 0
 3-21G
 ****
 26  28  29  30  38  39  40  41  42  43  44  45 0
 3-21G
 ****


