%nproc=1
%NoSave
%Mem=1900MB
#P OB98/GEN NMR

erre ene a

0 1
  C       43.279     -64.390     -58.711
  O       43.456     -63.888     -60.021
  H       44.134     -65.024     -58.460
  H       42.368     -64.991     -58.662
  H       43.222     -63.568     -57.992
  P       42.400     -62.797     -60.527
  C       42.391     -60.967     -62.410
  O       43.136     -61.905     -61.645
  C       43.205     -60.521     -63.623
  O       44.363     -59.761     -63.222
  C       43.788     -61.669     -64.430
  O       42.810     -62.378     -65.156
  C       44.781     -60.916     -65.302
  O       44.121     -60.272     -66.400
  C       45.330     -59.867     -64.302
  N       46.656     -60.209     -63.808
  C       47.690     -60.155     -64.751
  O       47.454     -59.824     -65.912
  N       48.957     -60.506     -64.357
  C       49.179     -60.854     -63.129
  N       50.454     -61.199     -62.805
  C       48.124     -60.899     -62.098
  C       46.899     -60.573     -62.504
  O       42.306     -61.797     -59.283
  O       41.087     -63.344     -60.983
  H       43.650     -60.975     -66.888
  H       43.168     -61.461     -58.988
  H       48.357     -61.187     -61.083
  H       46.067     -60.581     -61.812
  H       45.387     -58.878     -64.774
  H       45.536     -61.578     -65.729
  H       44.357     -62.341     -63.775
  H       42.568     -59.876     -64.241
  H       51.147     -61.177     -63.543
  H       42.102     -60.106     -61.801
  H       50.738     -61.517     -61.891
  H       41.471     -61.464     -62.736
  P       43.098     -63.868     -65.672
  C       41.681     -65.834     -66.540
  O       41.668     -64.501     -66.040
  O       43.930     -64.706     -64.761
  O       43.747     -63.637     -67.118
  H       43.177     -63.164     -67.749
  H       40.679     -66.146     -66.749
  H       42.113     -66.485     -65.809
  H       42.261     -65.872     -67.438

 6  7  8  9  10  11  12  13  14  15  16  26  30  31  32  33  35 0
 6-311+G(2d,p)
 ****
 37  38 0
 6-311+G(2d,p)
 ****
 1  2  3  4  5  17  18  19  20  21  22  23  24  25 0
 3-21G
 ****
 27  28  29  34  36  39  40  41  42  43  44  45  46 0
 3-21G
 ****


