%nproc=1
%NoSave
%Mem=1900MB
#P OB98/GEN NMR

erre ene a

0 1
  C      154.620    -254.650    1085.359
  O      154.694    -254.120    1086.682
  P      156.153    -253.966    1087.354
  C      156.081    -251.389    1087.347
  O      156.764    -252.557    1086.894
  C      157.106    -250.281    1087.714
  O      157.962    -250.703    1088.790
  C      158.029    -249.922    1086.582
  O      157.359    -249.139    1085.597
  C      159.155    -249.207    1087.321
  O      158.795    -247.842    1087.596
  C      159.215    -250.000    1088.649
  N      160.341    -250.918    1088.714
  C      161.154    -250.801    1089.852
  O      160.925    -249.934    1090.697
  N      162.228    -251.663    1089.991
  C      162.457    -252.556    1089.077
  N      163.519    -253.375    1089.258
  C      161.630    -252.702    1087.856
  C      160.595    -251.852    1087.756
  O      157.055    -255.145    1087.229
  O      155.776    -253.677    1088.904
  H      158.462    -247.469    1086.758
  H      156.513    -254.031    1089.458
  H      161.841    -253.464    1087.127
  H      159.940    -251.899    1086.887
  H      159.284    -249.310    1089.498
  H      160.081    -249.197    1086.749
  H      158.427    -250.832    1086.110
  H      156.539    -249.409    1088.037
  H      164.066    -253.251    1090.094
  H      155.472    -251.629    1088.203
  H      163.746    -254.145    1088.632
  H      155.421    -251.041    1086.551
  P      156.192    -249.850    1084.746
  C      154.333    -248.316    1085.704
  O      154.820    -249.643    1085.521
  O      156.514    -251.419    1084.938
  O      156.169    -249.486    1083.301
  H      156.265    -251.901    1084.128
  H      153.261    -248.377    1085.965
  H      154.441    -247.726    1084.797
  H      154.877    -247.825    1086.524
  H      153.597    -254.693    1085.049
  H      155.038    -255.635    1085.345
  H      155.169    -254.020    1084.691

 3  4  5  6  7  8  9  10  11  12  13  23  27  28  29  30  32 0
 6-311+G(2d,p)
 ****
 34  35 0
 6-311+G(2d,p)
 ****
 1  2  14  15  16  17  18  19  20  21  22  24  25  26 0
 3-21G
 ****
 31  33  36  37  38  39  40  41  42  43  44  45  46 0
 3-21G
 ****


