%nproc=1
%NoSave
%Mem=1900MB
#P OB98/GEN NMR

erre ene a

0 1
  C     -199.828    -192.743     215.608
  O     -198.751    -191.880     215.892
  H     -200.730    -192.353     216.086
  H     -199.625    -193.738     216.013
  H     -200.005    -192.809     214.530
  P     -197.373    -192.057     215.091
  C     -195.208    -193.420     215.441
  O     -196.528    -193.157     215.899
  C     -194.810    -194.857     215.785
  O     -194.779    -194.985     217.240
  C     -195.795    -195.914     215.244
  O     -195.052    -197.093     214.899
  C     -196.653    -196.180     216.465
  O     -197.333    -197.407     216.374
  C     -195.611    -196.108     217.579
  N     -196.243    -195.963     218.888
  C     -196.165    -197.053     219.750
  O     -195.616    -198.117     219.453
  N     -196.815    -196.922     220.946
  C     -197.603    -195.872     221.313
  O     -198.221    -195.837     222.366
  C     -197.688    -194.765     220.343
  C     -197.008    -194.857     219.197
  O     -196.627    -190.799     214.782
  O     -197.788    -192.859     213.768
  H     -196.718    -198.109     216.089
  H     -197.116    -192.734     213.072
  H     -196.761    -197.698     221.585
  H     -198.319    -193.921     220.594
  H     -197.063    -194.072     218.450
  H     -194.978    -197.004     217.579
  H     -197.403    -195.390     216.575
  H     -196.366    -195.570     214.382
  H     -193.793    -195.046     215.426
  H     -194.528    -192.717     215.931
  H     -195.163    -193.265     214.355
  P     -194.879    -197.565     213.373
  C     -196.317    -198.167     211.331
  O     -196.305    -197.961     212.740
  O     -193.821    -198.603     213.173
  O     -194.486    -196.227     212.588
  H     -193.737    -196.414     211.991
  H     -197.307    -198.424     211.017
  H     -195.646    -198.962     211.081
  H     -196.007    -197.270     210.837

 6  7  8  9  10  11  12  13  14  15  16  26  31  32  33  34  35 0
 6-311+G(2d,p)
 ****
 36  37 0
 6-311+G(2d,p)
 ****
 1  2  3  4  5  17  18  19  20  21  22  23  24  25 0
 3-21G
 ****
 27  28  29  30  38  39  40  41  42  43  44  45 0
 3-21G
 ****


