%nproc=1
%NoSave
%Mem=1900MB
#P OB98/GEN NMR

erre ene a

0 1
  C      -48.315    -180.435      11.800
  O      -49.088    -179.437      12.465
  P      -50.665    -179.511      12.715
  C      -51.019    -179.167      10.127
  O      -51.387    -179.844      11.326
  C      -52.227    -178.998       9.193
  O      -52.667    -180.321       8.755
  C      -53.420    -178.334       9.891
  O      -54.092    -177.363       9.082
  C      -54.245    -179.522      10.371
  O      -55.598    -179.197      10.653
  C      -54.012    -180.537       9.251
  N      -56.485    -184.960       8.577
  C      -56.725    -183.727       8.001
  N      -57.768    -183.649       7.144
  N      -56.016    -182.656       8.255
  C      -55.054    -182.853       9.185
  C      -54.728    -184.026       9.841
  C      -55.487    -185.214       9.517
  O      -55.305    -186.336       9.980
  N      -53.684    -183.834      10.711
  C      -53.388    -182.555      10.604
  N      -54.192    -181.913       9.679
  O      -51.247    -178.403      13.530
  O      -50.854    -180.879      13.554
  H      -56.101    -180.030      10.697
  H      -51.619    -180.735      14.148
  H      -57.047    -185.756       8.326
  H      -52.602    -182.044      11.151
  H      -54.702    -180.395       8.413
  H      -53.793    -179.879      11.311
  H      -58.428    -184.396       7.000
  H      -53.091    -177.751      10.759
  H      -58.074    -182.702       6.902
  H      -51.912    -178.435       8.304
  H      -50.259    -179.799       9.646
  H      -50.554    -178.207      10.352
  P      -54.082    -175.774       9.220
  C      -56.072    -175.640      10.836
  O      -54.689    -175.380      10.650
  O      -55.204    -175.263       8.198
  O      -52.767    -175.123       8.907
  H      -54.796    -174.694       7.511
  H      -56.411    -175.096      11.722
  H      -56.225    -176.713      10.999
  H      -56.653    -175.307       9.968
  H      -47.289    -180.131      11.771
  H      -48.678    -180.560      10.801
  H      -48.398    -181.362      12.329

 3  4  5  6  7  8  9  10  11  12  23  26  30  31 0
 6-311+G(2d,p)
 ****
 33  35  36  37  38 0
 6-311+G(2d,p)
 ****
 1  2  13  14  15  16  17  18  19  20  21  22  24  25 0
 3-21G
 ****
 27  28  29  32  34  39  40  41  42  43  44  45  46  47  48  49 0
 3-21G
 ****


