%nproc=1
%NoSave
%Mem=1900MB
#P OB98/GEN NMR

erre ene a

0 1
  C      731.052    -482.023     -37.308
  O      729.971    -482.501     -38.100
  P      729.519    -484.022     -37.888
  C      730.550    -486.333     -38.456
  O      730.688    -484.922     -38.523
  C      731.923    -487.003     -38.391
  O      732.622    -486.540     -37.213
  C      731.879    -488.526     -38.265
  O      731.678    -489.140     -39.533
  C      733.273    -488.798     -37.726
  O      734.223    -488.823     -38.808
  C      733.525    -487.594     -36.799
  N      735.640    -487.773     -32.201
  C      736.183    -487.409     -33.416
  N      737.474    -487.016     -33.389
  N      735.535    -487.439     -34.546
  C      734.245    -487.819     -34.409
  C      733.578    -488.206     -33.254
  C      734.332    -488.212     -32.020
  O      733.911    -488.594     -30.918
  N      732.269    -488.507     -33.514
  C      732.125    -488.269     -34.808
  N      733.306    -487.879     -35.403
  O      728.318    -484.188     -38.933
  O      729.097    -484.376     -36.499
  H      734.255    -487.913     -39.183
  H      727.723    -484.901     -38.639
  H      736.180    -487.724     -31.353
  H      731.184    -488.367     -35.354
  H      734.549    -487.216     -36.930
  H      733.341    -489.777     -37.224
  H      737.993    -486.849     -32.543
  H      731.120    -488.843     -37.538
  H      737.896    -486.704     -34.270
  H      732.495    -486.700     -39.278
  H      730.028    -486.688     -39.356
  H      729.943    -486.592     -37.581
  P      731.266    -490.692     -39.491
  C      732.469    -492.789     -38.546
  O      732.586    -491.478     -39.065
  O      731.073    -491.064     -41.042
  O      730.034    -490.990     -38.698
  H      730.457    -491.809     -41.146
  H      731.665    -493.345     -39.034
  H      732.270    -492.734     -37.467
  H      733.414    -493.327     -38.708
  H      731.247    -480.999     -37.551
  H      731.925    -482.609     -37.506
  H      730.797    -482.101     -36.272

 3  4  5  6  7  8  9  10  11  12  23  26  30  31  33  0
 6-311+G(2d,p)
 ****
 35  36  37  38 0
 6-311+G(2d,p)
 ****
 1  2  13  14  15  16  17  18  19  20  21  22  24  25  27  28  29 0
 3-21G
 ****
 32  34  39  40  41  42  43  44  45  46  47  48  49 0
 3-21G
 ****


