%nproc=1
%NoSave
%Mem=1900MB
#P OB98/GEN NMR

erre ene a

0 1
  C       51.995    -101.322     -29.741
  O       50.831    -102.126     -29.551
  P       49.448    -101.632     -30.195
  C       47.840     -99.629     -29.931
  O       48.925    -100.361     -29.366
  C       47.201     -98.708     -28.876
  O       46.545     -99.528     -27.873
  C       48.189     -97.821     -28.111
  O       48.505     -96.541     -28.648
  C       47.419     -97.569     -26.814
  O       46.488     -96.486     -27.003
  C       46.652     -98.870     -26.592
  N       47.896     -99.492     -21.666
  C       47.243     -98.503     -22.316
  N       46.954     -98.412     -23.629
  C       47.396     -99.495     -24.291
  C       48.074    -100.582     -23.763
  C       48.327    -100.558     -22.381
  N       49.001    -101.562     -21.721
  N       48.375    -101.496     -24.751
  C       47.905    -100.957     -25.861
  N       47.292     -99.755     -25.632
  O       48.433    -102.692     -30.454
  O       49.931    -100.963     -31.572
  H       45.901     -96.485     -26.223
  H       49.270    -101.153     -32.266
  H       46.914     -97.670     -21.697
  H       47.984    -101.402     -26.845
  H       45.631     -98.695     -26.229
  H       48.075     -97.278     -25.991
  H       49.115     -98.368     -27.891
  H       46.436     -98.085     -29.361
  H       47.089    -100.325     -30.314
  H       49.179    -101.443     -20.736
  H       49.381    -102.334     -22.248
  H       48.226     -99.078     -30.791
  P       49.838     -96.302     -29.504
  C       52.151     -95.240     -28.891
  O       50.953     -95.842     -28.447
  O       49.685     -95.396     -30.678
  O       50.288     -97.795     -29.873
  H       50.591     -98.321     -29.115
  H       52.669     -94.812     -28.028
  H       51.946     -94.444     -29.611
  H       52.797     -95.999     -29.348
  H       52.830    -101.782     -29.255
  H       51.830    -100.351     -29.323
  H       52.198    -101.230     -30.788

 3  4  5  6  7  8  9  10  11  12  22  25  29  30  31  32 0
 6-311+G(2d,p)
 ****
 33  36  37 0
 6-311+G(2d,p)
 ****
 1  2  13  14  15  16  17  18  19  20  21  23  24  26 0
 3-21G
 ****
 27  28  34  35  38  39  40  41  42  43  44  45  46  47  48 0
 3-21G
 ****


