%nproc=1
%NoSave
%Mem=1900MB
#P OB98/GEN NMR

erre ene a

0 1
  C     -164.490     142.356      -6.477
  O     -164.620     143.720      -6.126
  H     -163.946     141.840      -5.683
  H     -163.927     142.264      -7.409
  H     -165.478     141.896      -6.589
  P     -165.553     144.625      -7.074
  C     -167.166     145.613      -5.255
  O     -166.079     145.817      -6.141
  C     -166.703     144.867      -4.004
  O     -165.404     145.376      -3.614
  C     -167.644     145.022      -2.809
  O     -167.681     143.786      -2.094
  C     -166.974     146.089      -1.964
  O     -167.366     146.008      -0.595
  C     -165.489     145.817      -2.242
  N     -164.655     146.993      -2.010
  C     -163.856     146.980      -0.861
  O     -163.894     146.021      -0.091
  N     -163.069     148.071      -0.588
  C     -163.126     149.113      -1.356
  N     -162.338     150.171      -1.023
  C     -163.993     149.192      -2.550
  C     -164.714     148.103      -2.821
  O     -166.836     143.684      -7.254
  O     -164.904     145.042      -8.351
  H     -166.744     146.559      -0.070
  H     -167.108     143.235      -6.437
  H     -164.016     150.092      -3.150
  H     -165.372     148.072      -3.681
  H     -165.122     144.999      -1.604
  H     -167.251     147.086      -2.334
  H     -168.657     145.311      -3.088
  H     -166.565     143.811      -4.265
  H     -161.771     150.086      -0.187
  H     -167.957     145.042      -5.750
  H     -162.342     151.049      -1.516
  H     -167.569     146.595      -4.984
  P     -169.039     142.939      -2.063
  C     -168.572     140.410      -2.283
  O     -168.746     141.507      -1.395
  O     -169.811     142.894      -3.340
  O     -169.893     143.677      -0.917
  H     -170.826     143.692      -1.203
  H     -168.385     139.520      -1.719
  H     -167.742     140.603      -2.930
  H     -169.458     140.281      -2.868

 6  7  8  9  10  11  12  13  14  15  16  26  30  31  32  33  35 0
 6-311+G(2d,p)
 ****
 37  38 0
 6-311+G(2d,p)
 ****
 1  2  3  4  5  17  18  19  20  21  22  23  24  25 0
 3-21G
 ****
 27  28  29  34  36  39  40  41  42  43  44  45  46 0
 3-21G
 ****


