%nproc=1
%NoSave
%Mem=1900MB
#P OB98/GEN NMR

erre ene a

0 1
  C      268.431     142.485    -240.110
  O      267.457     141.694    -239.449
  P      266.431     142.419    -238.453
  C      267.492     141.397    -236.308
  O      267.161     142.571    -237.031
  C      267.354     141.639    -234.800
  O      267.662     140.406    -234.085
  C      268.274     142.738    -234.250
  O      267.578     143.398    -233.183
  C      269.434     141.935    -233.685
  O      270.204     142.656    -232.736
  C      268.673     140.731    -233.106
  N      269.540     139.587    -232.826
  C      269.966     139.417    -231.512
  O      269.651     140.167    -230.586
  N      270.828     138.373    -231.296
  C      271.367     137.562    -232.256
  O      272.228     136.721    -232.006
  C      270.884     137.793    -233.626
  C      270.012     138.775    -233.847
  O      265.320     141.299    -238.192
  O      265.838     143.687    -238.984
  H      269.605     142.927    -232.016
  H      264.531     141.473    -238.745
  H      271.142     138.228    -230.347
  H      271.276     137.156    -234.405
  H      269.651     138.982    -234.851
  H      268.147     141.025    -232.193
  H      270.094     141.630    -234.503
  H      268.590     143.464    -235.006
  H      266.298     141.883    -234.588
  H      268.528     141.122    -236.524
  H      266.849     140.574    -236.632
  P      267.749     144.989    -233.041
  C      269.027     144.794    -230.768
  O      269.026     145.236    -232.108
  O      266.505     145.338    -232.089
  O      267.723     145.713    -234.355
  H      266.404     144.704    -231.359
  H      268.462     143.858    -230.651
  H      268.580     145.560    -230.125
  H      270.059     144.621    -230.447
  H      269.035     141.860    -240.734
  H      269.051     142.968    -239.384
  H      267.943     143.224    -240.711

 3  4  5  6  7  8  9  10  11  12  13  23  28  29  30  31  32 0
 6-311+G(2d,p)
 ****
 33  34 0
 6-311+G(2d,p)
 ****
 1  2  14  15  16  17  18  19  20  21  22  24  25  26 0
 3-21G
 ****
 27  35  36  37  38  39  40  41  42  43  44  45 0
 3-21G
 ****


