%nproc=1
%NoSave
%Mem=1900MB
#P OB98/GEN NMR

erre ene a

0 1
  C      202.565    -379.926      -4.961
  O      202.979    -381.234      -5.297
  H      201.981    -379.973      -4.038
  H      201.937    -379.523      -5.760
  H      203.422    -379.264      -4.801
  P      204.194    -381.416      -6.325
  C      204.164    -381.907      -8.861
  O      203.637    -381.115      -7.802
  C      203.373    -381.726     -10.156
  O      203.374    -380.341     -10.554
  C      203.985    -382.509     -11.321
  O      203.607    -383.867     -11.406
  C      203.467    -381.724     -12.524
  O      202.156    -382.174     -12.906
  C      203.407    -380.285     -11.993
  N      204.993    -375.969     -14.223
  C      203.707    -376.429     -14.039
  N      202.719    -375.669     -14.569
  N      203.420    -377.542     -13.415
  C      204.509    -378.240     -13.021
  C      205.834    -377.893     -13.162
  C      206.138    -376.634     -13.805
  O      207.268    -376.183     -14.002
  N      206.668    -378.857     -12.634
  C      205.847    -379.813     -12.252
  N      204.529    -379.477     -12.441
  O      204.419    -383.002      -6.360
  O      205.457    -380.698      -5.958
  H      201.582    -382.145     -12.116
  H      205.346    -383.201      -6.598
  H      205.155    -375.092     -14.688
  H      206.155    -380.756     -11.808
  H      202.492    -379.777     -12.315
  H      204.111    -381.851     -13.399
  H      202.897    -374.874     -15.158
  H      205.077    -382.427     -11.303
  H      201.803    -376.099     -14.691
  H      202.326    -382.014      -9.982
  H      204.113    -382.945      -8.527
  H      205.223    -381.670      -9.021
  P      204.244    -384.810     -12.538
  C      204.080    -384.885     -15.134
  O      203.519    -384.439     -13.917
  O      203.659    -386.253     -12.168
  O      205.734    -384.810     -12.583
  H      204.305    -386.756     -11.640
  H      203.474    -384.551     -15.950
  H      204.123    -385.954     -15.136
  H      205.068    -384.488     -15.238

 6  7  8  9  10  11  12  13  14  15  26  29  33  34 0
 6-311+G(2d,p)
 ****
 36  38  39  40  41 0
 6-311+G(2d,p)
 ****
 1  2  3  4  5  16  17  18  19  20  21  22  23  24  25 0
 3-21G
 ****
 27  28  30  31  32  35  37  42  43  44  45  46  47 0
 3-21G
 ****
 48  49 0
 3-21G
 ****


