%nproc=1
%NoSave
%Mem=1900MB
#P OB98/GEN NMR

erre ene a

0 1
  C     -294.655     -83.216    -197.041
  O     -295.895     -82.603    -196.726
  P     -295.911     -81.488    -195.569
  C     -296.726     -83.251    -193.837
  O     -295.763     -82.270    -194.175
  C     -297.126     -83.128    -192.360
  O     -295.947     -83.355    -191.543
  C     -297.694     -81.757    -191.962
  O     -298.652     -81.991    -190.922
  C     -296.485     -81.039    -191.387
  O     -296.843     -79.961    -190.526
  C     -295.772     -82.195    -190.699
  N     -292.381     -78.934    -188.824
  C     -293.760     -78.825    -188.926
  N     -294.307     -77.713    -188.397
  N     -294.523     -79.721    -189.488
  C     -293.831     -80.789    -189.959
  C     -292.473     -80.993    -189.957
  C     -291.642     -80.009    -189.298
  O     -290.425     -80.110    -189.109
  N     -292.135     -82.152    -190.609
  C     -293.299     -82.687    -190.933
  N     -294.355     -81.915    -190.519
  O     -297.437     -80.993    -195.570
  O     -294.941     -80.359    -195.746
  H     -296.027     -79.610    -190.128
  H     -297.548     -80.206    -196.136
  H     -291.848     -78.218    -188.360
  H     -293.437     -83.620    -191.456
  H     -296.189     -82.421    -189.709
  H     -295.881     -80.627    -192.206
  H     -293.784     -76.989    -187.917
  H     -298.156     -81.215    -192.795
  H     -295.320     -77.622    -188.424
  H     -297.844     -83.923    -192.128
  H     -296.295     -84.244    -193.997
  H     -297.608     -83.150    -194.483
  P     -300.034     -81.176    -190.982
  C     -299.461     -79.562    -189.034
  O     -299.761     -79.708    -190.413
  O     -300.902     -81.865    -189.816
  O     -300.751     -81.250    -192.290
  H     -301.846     -81.841    -190.059
  H     -298.925     -78.620    -188.890
  H     -298.844     -80.385    -188.671
  H     -300.393     -79.528    -188.467
  H     -294.799     -83.931    -197.824
  H     -294.270     -83.710    -196.173
  H     -293.960     -82.469    -197.364

 3  4  5  6  7  8  9  10  11  12  23  26  30  31 0
 6-311+G(2d,p)
 ****
 33  35  36  37  38 0
 6-311+G(2d,p)
 ****
 1  2  13  14  15  16  17  18  19  20  21  22  24  25 0
 3-21G
 ****
 27  28  29  32  34  39  40  41  42  43  44  45  46  47  48  49 0
 3-21G
 ****


