%nproc=1
%NoSave
%Mem=1900MB
#P OB98/GEN NMR

erre ene a

0 1
  C       38.816      -0.977      67.849
  O       37.940       0.130      67.896
  H       39.610      -0.824      68.585
  H       39.270      -1.059      66.859
  H       38.286      -1.902      68.093
  P       36.607       0.100      67.006
  C       37.755       1.765      65.410
  O       36.585       1.460      66.158
  C       37.445       2.849      64.381
  O       38.648       3.225      63.673
  C       36.450       2.417      63.309
  O       35.133       2.401      63.822
  C       36.720       3.466      62.242
  O       36.068       4.706      62.560
  C       38.256       3.620      62.338
  N       38.970       2.840      61.326
  C       39.280       3.506      60.145
  O       38.981       4.679      59.934
  N       39.911       2.756      59.187
  C       40.169       1.418      59.264
  O       40.533       0.745      58.305
  C       39.888       0.787      60.561
  C       39.296       1.511      61.513
  O       35.345      -0.209      67.740
  O       36.924      -1.009      65.893
  H       36.482      -1.845      66.136
  H       36.287       5.327      61.838
  H       40.099       3.217      58.308
  H       40.139      -0.260      60.684
  H       39.051       1.058      62.468
  H       38.543       4.673      62.222
  H       36.360       3.159      61.258
  H       36.726       1.432      62.915
  H       37.079       3.734      64.917
  H       38.084       0.856      64.894
  H       38.543       2.092      66.094
  P       34.457       1.042      64.325
  C       33.258       0.354      62.168
  O       33.101       0.824      63.499
  O       34.306       0.921      65.806
  O       35.415      -0.110      63.754
  H       35.683      -0.696      64.488
  H       32.296       0.245      61.713
  H       33.756      -0.593      62.181
  H       33.840       1.056      61.608

 6  7  8  9  10  11  12  13  14  15  16  27  31  32  33  34  35 0
 6-311+G(2d,p)
 ****
 36  37 0
 6-311+G(2d,p)
 ****
 1  2  3  4  5  17  18  19  20  21  22  23  24  25 0
 3-21G
 ****
 26  28  29  30  38  39  40  41  42  43  44  45 0
 3-21G
 ****


