%nproc=1
%NoSave
%Mem=1900MB
#P OB98/GEN NMR

erre ene a

0 1
  C      150.743    -123.553     -17.432
  O      150.209    -122.565     -16.575
  H      150.807    -123.141     -18.442
  H      150.097    -124.435     -17.455
  H      151.748    -123.835     -17.107
  P      149.906    -122.963     -15.050
  C      147.952    -124.598     -15.523
  O      148.337    -123.320     -15.041
  C      146.883    -124.455     -16.604
  O      146.497    -125.743     -17.125
  C      145.579    -123.819     -16.134
  O      145.674    -122.419     -15.930
  C      144.676    -124.176     -17.305
  O      144.967    -123.314     -18.418
  C      145.125    -125.629     -17.598
  N      144.278    -126.629     -16.952
  C      144.757    -127.946     -16.943
  O      145.839    -128.221     -17.459
  N      143.980    -128.930     -16.381
  C      142.819    -128.630     -15.889
  N      142.068    -129.650     -15.388
  C      142.283    -127.256     -15.862
  C      143.051    -126.316     -16.408
  O      150.343    -121.982     -14.010
  O      150.566    -124.410     -14.878
  H      144.527    -122.463     -18.244
  H      150.415    -124.697     -13.944
  H      141.305    -127.062     -15.446
  H      142.719    -125.285     -16.441
  H      145.140    -125.821     -18.677
  H      143.612    -124.068     -17.078
  H      145.202    -124.320     -15.237
  H      147.329    -123.893     -17.436
  H      142.449    -130.584     -15.462
  H      147.579    -125.184     -14.678
  H      141.068    -129.550     -15.248
  H      148.815    -125.112     -15.958
  P      144.898    -121.789     -14.673
  C      142.566    -121.749     -15.833
  O      143.628    -121.005     -15.261
  O      145.879    -120.621     -14.198
  O      144.567    -122.746     -13.570
  H      146.478    -120.929     -13.490
  H      141.805    -121.079     -16.174
  H      142.157    -122.410     -15.097
  H      142.935    -122.320     -16.659

 6  7  8  9  10  11  12  13  14  15  16  26  30  31  32  33  35 0
 6-311+G(2d,p)
 ****
 37  38 0
 6-311+G(2d,p)
 ****
 1  2  3  4  5  17  18  19  20  21  22  23  24  25 0
 3-21G
 ****
 27  28  29  34  36  39  40  41  42  43  44  45  46 0
 3-21G
 ****


