%nproc=1
%NoSave
%Mem=1900MB
#P OB98/GEN NMR

erre ene a

0 1
  C     -317.984     216.105    -813.369
  O     -317.360     215.394    -812.323
  H     -317.435     215.911    -814.296
  H     -317.949     217.180    -813.175
  H     -319.018     215.779    -813.497
  P     -317.930     215.533    -810.831
  C     -318.673     213.081    -810.988
  O     -319.080     214.416    -810.710
  C     -319.834     212.100    -810.798
  O     -321.085     212.747    -811.161
  C     -319.709     210.824    -811.645
  O     -319.972     209.679    -810.834
  C     -320.804     210.981    -812.691
  O     -321.250     209.740    -813.222
  C     -321.849     211.772    -811.892
  N     -322.847     212.385    -812.753
  C     -323.907     211.558    -813.162
  O     -323.950     210.388    -812.779
  N     -324.841     212.055    -814.034
  C     -324.717     213.264    -814.482
  N     -325.664     213.689    -815.353
  C     -323.604     214.163    -814.100
  C     -322.717     213.669    -813.241
  O     -318.344     216.912    -810.447
  O     -316.770     214.944    -809.894
  H     -320.514     209.334    -813.726
  H     -316.882     215.308    -808.984
  H     -323.544     215.158    -814.516
  H     -321.865     214.251    -812.907
  H     -322.359     211.128    -811.166
  H     -320.433     211.590    -813.521
  H     -318.730     210.715    -812.110
  H     -319.910     211.862    -809.730
  H     -326.401     213.038    -815.595
  H     -317.839     212.827    -810.321
  H     -325.659     214.593    -815.798
  H     -318.328     213.034    -812.025
  P     -318.708     209.002    -810.120
  C     -319.619     209.506    -807.740
  O     -318.553     209.676    -808.669
  O     -317.459     209.580    -810.948
  O     -318.738     207.514    -810.139
  H     -317.062     208.871    -811.478
  H     -319.378     210.005    -806.825
  H     -319.764     208.463    -807.550
  H     -320.517     209.922    -808.147

 6  7  8  9  10  11  12  13  14  15  16  26  30  31  32  33  35 0
 6-311+G(2d,p)
 ****
 37  38 0
 6-311+G(2d,p)
 ****
 1  2  3  4  5  17  18  19  20  21  22  23  24  25 0
 3-21G
 ****
 27  28  29  34  36  39  40  41  42  43  44  45  46 0
 3-21G
 ****


