%nproc=1
%NoSave
%Mem=1900MB
#P OB98/GEN NMR

erre ene a

0 1
  C       37.270    -370.254    -157.863
  O       38.505    -370.918    -158.005
  P       38.713    -372.474    -157.746
  C       38.588    -373.539    -160.134
  O       37.938    -373.292    -158.891
  C       38.086    -374.841    -160.767
  O       38.649    -375.957    -160.031
  C       36.554    -374.965    -160.672
  O       35.940    -375.476    -161.851
  C       36.360    -375.754    -159.383
  O       35.094    -376.387    -159.291
  C       37.572    -376.683    -159.401
  N       36.701    -379.802    -155.482
  C       36.147    -379.820    -156.747
  N       35.092    -380.649    -156.919
  N       36.557    -379.054    -157.729
  C       37.536    -378.196    -157.370
  C       38.168    -378.089    -156.149
  C       37.729    -378.962    -155.089
  O       38.113    -378.907    -153.924
  N       39.070    -377.057    -156.134
  C       38.962    -376.510    -157.324
  N       38.016    -377.149    -158.103
  O       38.573    -372.944    -156.332
  O       40.259    -372.672    -158.176
  H       34.410    -375.712    -159.469
  H       40.630    -373.364    -157.594
  H       36.284    -380.361    -154.745
  H       39.510    -375.645    -157.669
  H       37.379    -377.582    -159.991
  H       36.423    -375.045    -158.549
  H       34.665    -381.140    -156.153
  H       36.099    -373.978    -160.555
  H       34.515    -380.498    -157.751
  H       38.447    -374.904    -161.799
  H       39.658    -373.610    -159.911
  H       38.444    -372.693    -160.815
  P       34.405    -375.417    -162.280
  C       34.222    -374.072    -164.465
  O       34.149    -374.030    -163.052
  O       33.597    -375.219    -160.917
  O       33.913    -376.626    -163.003
  H       32.774    -375.751    -160.944
  H       34.300    -373.048    -164.833
  H       33.317    -374.530    -164.863
  H       35.102    -374.643    -164.783
  H       37.394    -369.217    -158.094
  H       36.924    -370.356    -156.856
  H       36.554    -370.685    -158.532

 3  4  5  6  7  8  9  10  11  12  23  26  30  31 0
 6-311+G(2d,p)
 ****
 33  35  36  37  38 0
 6-311+G(2d,p)
 ****
 1  2  13  14  15  16  17  18  19  20  21  22  24  25 0
 3-21G
 ****
 27  28  29  32  34  39  40  41  42  43  44  45  46  47  48  49 0
 3-21G
 ****


