%nproc=1
%NoSave
%Mem=1900MB
#P OB98/GEN NMR

erre ene a

0 1
  C      345.735    -328.207    -393.542
  O      344.460    -328.012    -392.962
  H      346.416    -327.445    -393.155
  H      345.681    -328.106    -394.629
  H      346.128    -329.194    -393.281
  P      343.278    -329.008    -393.378
  C      342.740    -328.947    -390.853
  O      342.218    -328.961    -392.175
  C      341.727    -328.327    -389.899
  O      340.463    -329.012    -389.992
  C      342.145    -328.383    -388.430
  O      343.056    -327.338    -388.133
  C      340.794    -328.215    -387.754
  O      340.393    -326.833    -387.808
  C      339.888    -329.067    -388.655
  N      337.474    -332.372    -385.666
  C      337.354    -330.998    -385.748
  N      336.498    -330.421    -384.878
  N      338.027    -330.258    -386.593
  C      338.894    -330.966    -387.350
  C      339.113    -332.325    -387.349
  C      338.324    -333.141    -386.449
  O      338.385    -334.362    -386.356
  N      340.121    -332.676    -388.212
  C      340.482    -331.531    -388.762
  N      339.778    -330.464    -388.262
  O      343.686    -330.396    -393.769
  O      342.526    -328.245    -394.565
  H      339.604    -326.749    -387.245
  H      342.880    -328.508    -395.434
  H      336.942    -332.884    -384.981
  H      341.242    -331.424    -389.525
  H      338.869    -328.669    -388.720
  H      340.799    -328.510    -386.705
  H      336.187    -330.896    -384.040
  H      342.548    -329.365    -388.160
  H      336.435    -329.411    -384.888
  H      341.556    -327.291    -390.218
  H      343.663    -328.357    -390.868
  H      342.978    -329.964    -390.529
  P      344.620    -327.634    -387.931
  C      345.136    -325.311    -388.940
  O      345.308    -326.189    -387.835
  O      345.224    -328.543    -388.947
  O      344.735    -328.171    -386.434
  H      344.619    -329.150    -386.353
  H      345.643    -324.389    -388.745
  H      344.093    -325.121    -389.086
  H      345.543    -325.762    -389.821

 6  7  8  9  10  11  12  13  14  15  26  29  33  34 0
 6-311+G(2d,p)
 ****
 36  38  39  40  41 0
 6-311+G(2d,p)
 ****
 1  2  3  4  5  16  17  18  19  20  21  22  23  24  25 0
 3-21G
 ****
 27  28  30  31  32  35  37  42  43  44  45  46  47 0
 3-21G
 ****
 48  49 0
 3-21G
 ****


