%nproc=1
%NoSave
%Mem=1900MB
#P OB98/GEN NMR

erre ene a

0 1
  C      383.169     134.244     419.788
  O      384.033     134.235     418.645
  P      385.413     133.413     418.607
  C      387.062     135.217     419.429
  O      386.619     134.430     418.329
  C      388.239     136.125     419.040
  O      389.427     135.338     418.828
  C      388.038     136.916     417.760
  O      387.167     138.012     417.965
  C      389.477     137.289     417.420
  O      389.897     138.450     418.164
  C      390.251     136.039     417.873
  N      390.623     135.176     416.757
  C      391.841     135.463     416.131
  O      392.519     136.429     416.484
  N      392.255     134.650     415.100
  C      391.481     133.692     414.684
  N      391.947     132.926     413.665
  C      390.151     133.421     415.256
  C      389.793     134.192     416.279
  O      385.384     132.231     417.693
  O      385.658     132.944     420.120
  H      389.772     138.234     419.109
  H      386.140     132.092     420.115
  H      389.528     132.636     414.862
  H      388.833     134.055     416.767
  H      391.163     136.325     418.409
  H      389.613     137.526     416.360
  H      387.642     136.257     416.975
  H      388.431     136.799     419.887
  H      392.864     133.133     413.296
  H      387.376     134.543     420.233
  H      391.425     132.153     413.268
  H      386.223     135.823     419.788
  P      385.673     137.962     417.394
  C      386.315     139.864     415.794
  O      385.361     139.382     416.724
  O      384.631     137.463     418.343
  O      385.792     136.993     416.119
  H      384.948     136.510     416.008
  H      385.826     140.591     415.136
  H      386.726     139.055     415.188
  H      387.124     140.363     416.336
  H      382.315     134.855     419.585
  H      383.697     134.638     420.631
  H      382.850     133.245     420.002

 3  4  5  6  7  8  9  10  11  12  13  23  27  28  29  30  32 0
 6-311+G(2d,p)
 ****
 34  35 0
 6-311+G(2d,p)
 ****
 1  2  14  15  16  17  18  19  20  21  22  24  25  26 0
 3-21G
 ****
 31  33  36  37  38  39  40  41  42  43  44  45  46 0
 3-21G
 ****


