%nproc=1
%NoSave
%Mem=1900MB
#P OB98/GEN NMR

erre ene a

0 1
  C     -199.644    -366.171    1188.749
  O     -198.354    -365.734    1189.130
  H     -199.581    -367.230    1188.478
  H     -199.999    -365.608    1187.888
  H     -200.346    -366.058    1189.587
  P     -198.242    -364.251    1189.732
  C     -196.239    -362.850    1190.722
  O     -196.808    -364.140    1190.447
  C     -195.303    -362.948    1191.927
  O     -196.045    -363.270    1193.123
  C     -194.266    -364.035    1191.822
  O     -193.250    -363.746    1190.884
  C     -193.779    -364.094    1193.270
  O     -192.845    -363.026    1193.540
  C     -195.101    -363.871    1194.047
  N     -195.621    -365.118    1194.639
  C     -195.219    -365.376    1195.956
  O     -194.491    -364.598    1196.560
  N     -195.628    -366.550    1196.541
  C     -196.386    -367.372    1195.878
  N     -196.764    -368.520    1196.512
  C     -196.857    -367.122    1194.504
  C     -196.434    -365.989    1193.941
  O     -199.265    -364.294    1190.964
  O     -198.496    -363.145    1188.747
  H     -192.789    -362.942    1194.521
  H     -199.090    -365.031    1191.574
  H     -197.500    -367.835    1193.987
  H     -196.721    -365.738    1192.920
  H     -194.955    -363.160    1194.876
  H     -193.263    -365.018    1193.498
  H     -194.745    -365.001    1191.605
  H     -194.847    -361.956    1192.081
  H     -196.410    -368.672    1197.453
  H     -197.025    -362.114    1190.876
  H     -197.336    -369.258    1196.088
  H     -195.669    -362.554    1189.830
  P     -192.033    -364.777    1190.639
  C     -190.724    -365.434    1188.528
  O     -191.995    -365.061    1189.084
  O     -192.063    -366.015    1191.505
  O     -190.735    -363.865    1190.876
  H     -190.654    -363.113    1190.272
  H     -190.829    -365.598    1187.476
  H     -190.380    -366.332    1188.996
  H     -190.016    -364.650    1188.698

 6  7  8  9  10  11  12  13  14  15  16  26  30  31  32  33  35 0
 6-311+G(2d,p)
 ****
 37  38 0
 6-311+G(2d,p)
 ****
 1  2  3  4  5  17  18  19  20  21  22  23  24  25 0
 3-21G
 ****
 27  28  29  34  36  39  40  41  42  43  44  45  46 0
 3-21G
 ****


