%nproc=1
%NoSave
%Mem=1900MB
#P OB98/GEN NMR

erre ene a

0 1
  C     -735.419    1164.529    -892.260
  O     -734.652    1163.468    -892.810
  P     -735.267    1162.513    -893.960
  C     -734.692    1164.041    -895.970
  O     -734.398    1162.823    -895.320
  C     -733.391    1164.775    -896.280
  O     -732.711    1165.237    -895.090
  C     -732.322    1163.885    -896.970
  O     -732.630    1163.409    -898.260
  C     -731.062    1164.724    -896.800
  O     -730.988    1165.752    -897.800
  C     -731.296    1165.367    -895.380
  N     -730.463    1164.719    -894.380
  C     -729.142    1165.121    -894.370
  O     -728.636    1165.906    -895.150
  N     -728.323    1164.482    -893.420
  C     -728.747    1163.475    -892.580
  O     -727.956    1162.942    -891.790
  C     -730.164    1163.149    -892.630
  C     -730.942    1163.726    -893.500
  O     -736.738    1162.645    -894.120
  O     -734.754    1161.035    -893.530
  H     -731.786    1166.296    -897.740
  H     -733.784    1160.956    -893.490
  H     -727.357    1164.705    -893.420
  H     -730.519    1162.377    -891.950
  H     -732.026    1163.496    -893.580
  H     -731.073    1166.426    -895.410
  H     -730.165    1164.139    -896.890
  H     -732.198    1162.991    -896.340
  H     -733.603    1165.656    -896.920
  H     -735.292    1164.666    -895.330
  H     -735.258    1163.844    -896.880
  P     -732.604    1161.844    -898.650
  C     -735.183    1161.379    -898.440
  O     -733.992    1161.473    -899.300
  O     -732.008    1160.895    -897.650
  O     -731.635    1161.870    -899.960
  H     -731.114    1161.042    -900.000
  H     -736.011    1161.031    -899.040
  H     -735.375    1162.346    -898.000
  H     -734.972    1160.619    -897.680
  H     -734.841    1165.040    -891.519
  H     -736.305    1164.132    -891.810
  H     -735.689    1165.214    -893.037

 3  4  5  6  7  8  9  10  11  12  13  23  28  29  30  31  32 0
 6-311+G(2d,p)
 ****
 33  34 0
 6-311+G(2d,p)
 ****
 1  2  14  15  16  17  18  19  20  21  22  24  25  26  27 0
 3-21G
 ****
 35  36  37  38  39  40  41  42  43  44  45 0
 3-21G
 ****


