%nproc=1
%NoSave
%Mem=1900MB
#P OB98/GEN NMR

erre ene a

0 1
  C      163.008      40.325    -286.353
  O      161.718      40.754    -286.752
  P      161.321      42.279    -286.447
  C      159.459      41.307    -284.911
  O      160.516      42.252    -285.062
  C      159.533      40.644    -283.539
  O      160.792      39.966    -283.385
  C      159.448      41.618    -282.376
  O      158.111      42.029    -282.167
  C      160.022      40.781    -281.240
  O      159.002      39.975    -280.624
  C      161.060      39.893    -281.967
  N      162.429      40.274    -281.663
  C      162.890      39.924    -280.387
  O      162.141      39.350    -279.596
  N      164.169      40.272    -280.031
  C      164.918      40.913    -280.874
  N      166.180      41.228    -280.469
  C      164.464      41.317    -282.218
  C      163.219      40.974    -282.544
  O      160.189      42.584    -287.534
  O      162.456      43.245    -286.520
  H      158.289      40.600    -280.373
  H      160.152      43.538    -287.739
  H      165.129      41.851    -282.883
  H      162.805      41.231    -283.511
  H      160.928      38.841    -281.682
  H      160.453      41.403    -280.452
  H      160.090      42.489    -282.555
  H      158.731      39.896    -283.476
  H      166.459      40.943    -279.539
  H      159.551      40.537    -285.681
  H      166.847      41.705    -281.059
  H      158.502      41.822    -285.044
  P      157.740      43.550    -282.498
  C      156.870      43.695    -280.091
  O      157.699      44.282    -281.073
  O      156.183      43.447    -282.867
  O      158.527      44.228    -283.570
  H      155.859      44.308    -283.186
  H      157.051      44.190    -279.135
  H      157.095      42.630    -279.984
  H      155.818      43.827    -280.362
  H      163.139      39.296    -286.615
  H      163.110      40.439    -285.294
  H      163.750      40.916    -286.848

 3  4  5  6  7  8  9  10  11  12  13  21  23  27  28  29  30  32 0
 6-311+G(2d,p)
 ****
 34  35 0
 6-311+G(2d,p)
 ****
 1  2  14  15  16  17  18  19  20  22  24  25  26 0
 3-21G
 ****
 31  33  36  37  38  39  40  41  42  43  44  45  46 0
 3-21G
 ****


