%nproc=1
%NoSave
%Mem=1900MB
#P OB98/GEN NMR

erre ene a

0 1
  C     -675.505     103.074    -493.434
  O     -676.156     103.499    -494.615
  P     -676.530     105.053    -494.747
  C     -675.316     105.550    -496.992
  O     -675.324     105.725    -495.580
  C     -673.953     105.080    -497.482
  O     -673.773     103.674    -497.131
  C     -673.744     105.156    -498.968
  O     -673.396     106.480    -499.380
  C     -672.573     104.192    -499.166
  O     -671.330     104.858    -498.837
  C     -672.877     103.104    -498.112
  N     -672.446      98.081    -498.775
  C     -671.599      98.975    -498.148
  N     -670.478      98.453    -497.564
  N     -671.820     100.263    -498.062
  C     -672.973     100.652    -498.630
  C     -673.892      99.864    -499.311
  C     -673.616      98.449    -499.433
  O     -674.296      97.629    -500.047
  N     -674.950     100.616    -499.759
  C     -674.725     101.832    -499.321
  N     -673.495     101.918    -498.670
  O     -676.300     105.613    -493.257
  O     -677.905     105.340    -495.232
  H     -671.254     105.616    -499.439
  H     -676.830     106.398    -493.092
  H     -672.238      97.100    -498.814
  H     -675.381     102.690    -499.441
  H     -671.962     102.802    -497.574
  H     -672.489     103.818    -500.198
  H     -670.334      97.457    -497.477
  H     -674.615     104.776    -499.517
  H     -669.878      99.079    -497.049
  H     -673.183     105.656    -496.930
  H     -675.542     106.505    -497.467
  H     -676.096     104.820    -497.261
  P     -674.562     107.344    -500.127
  C     -674.215     109.679    -499.045
  O     -674.958     108.465    -499.048
  O     -675.813     106.324    -500.079
  O     -674.214     107.788    -501.489
  H     -676.426     106.546    -500.804
  H     -673.925     109.987    -500.065
  H     -673.309     109.560    -498.432
  H     -674.829     110.479    -498.625
  H     -675.320     102.021    -493.488
  H     -676.126     103.284    -492.589
  H     -674.576     103.595    -493.332

 3  4  5  6  7  8  9  10  11  12  23  26  30  31  33  0
 6-311+G(2d,p)
 ****
 35  36  37  38 0
 6-311+G(2d,p)
 ****
 1  2  13  14  15  16  17  18  19  20  21  22  24  25  27  28  29 0
 3-21G
 ****
 32  34  39  40  41  42  43  44  45  46  47  48  49 0
 3-21G
 ****


