%nproc=1
%NoSave
%Mem=1900MB
#P OB98/GEN NMR

erre ene a

0 1
  C     -305.401     775.601    -137.169
  O     -305.626     774.799    -138.319
  P     -305.045     773.305    -138.434
  C     -307.265     772.042    -138.054
  O     -306.260     772.415    -138.981
  C     -308.528     771.582    -138.799
  O     -309.251     772.752    -139.255
  C     -308.253     770.700    -140.025
  O     -309.314     769.739    -140.110
  C     -308.326     771.685    -141.171
  O     -308.591     771.058    -142.417
  C     -309.441     772.618    -140.680
  N     -309.405     773.931    -141.336
  C     -310.167     774.087    -142.488
  O     -310.834     773.157    -142.949
  N     -310.183     775.312    -143.104
  C     -309.417     776.269    -142.655
  N     -309.501     777.484    -143.265
  C     -308.513     776.103    -141.500
  C     -308.574     774.928    -140.887
  O     -304.398     772.795    -137.193
  O     -304.075     773.353    -139.702
  H     -309.349     770.448    -142.300
  H     -303.164     773.670    -139.486
  H     -307.879     776.921    -141.182
  H     -307.971     774.729    -140.010
  H     -310.422     772.153    -140.832
  H     -307.370     772.218    -141.264
  H     -307.298     770.174    -139.955
  H     -309.169     771.057    -138.090
  H     -310.251     777.607    -143.940
  H     -307.513     772.909    -137.443
  H     -309.208     778.331    -142.787
  H     -306.890     771.251    -137.392
  P     -309.039     768.247    -139.589
  C     -311.317     768.255    -138.335
  O     -310.453     767.578    -139.228
  O     -308.423     768.526    -138.129
  O     -308.083     767.420    -140.388
  H     -307.858     767.776    -137.872
  H     -312.229     767.665    -138.214
  H     -311.590     769.237    -138.742
  H     -310.840     768.373    -137.363
  H     -305.872     776.553    -137.300
  H     -304.349     775.740    -137.031
  H     -305.812     775.115    -136.309

 3  4  5  6  7  8  9  10  11  12  13  23  27  28  29  30  32 0
 6-311+G(2d,p)
 ****
 34  35 0
 6-311+G(2d,p)
 ****
 1  2  14  15  16  17  18  19  20  21  22  24  25  26 0
 3-21G
 ****
 31  33  36  37  38  39  40  41  42  43  44  45  46 0
 3-21G
 ****


