%nproc=1
%NoSave
%Mem=1900MB
#P OB98/GEN NMR

erre ene a

0 1
  C      292.936     134.192    -302.238
  O      294.249     134.709    -302.360
  P      295.436     133.657    -302.615
  C      297.101     135.434    -301.697
  O      296.624     134.092    -301.630
  C      297.680     135.856    -300.349
  O      296.628     135.949    -299.369
  C      298.692     134.882    -299.775
  O      299.943     135.028    -300.420
  C      298.703     135.286    -298.307
  O      299.626     136.364    -298.073
  C      297.246     135.752    -298.075
  N      296.483     134.820    -297.262
  C      296.274     135.205    -295.930
  O      296.740     136.269    -295.514
  N      295.577     134.361    -295.101
  C      295.135     133.229    -295.559
  N      294.446     132.435    -294.695
  C      295.353     132.778    -296.947
  C      296.035     133.609    -297.735
  O      295.979     134.065    -304.063
  O      295.022     132.224    -302.545
  H      300.509     136.012    -298.307
  H      296.390     133.299    -304.507
  H      294.966     131.824    -297.278
  H      296.241     133.356    -298.766
  H      297.230     136.729    -297.577
  H      299.008     134.462    -297.658
  H      298.332     133.850    -299.872
  H      298.124     136.854    -300.466
  H      294.321     132.771    -293.747
  H      296.271     136.097    -301.953
  H      294.045     131.549    -294.959
  H      297.859     135.501    -302.484
  P      301.125     134.039    -299.984
  C      302.842     135.785    -300.754
  O      302.370     135.002    -299.675
  O      301.549     133.380    -301.381
  O      300.810     133.012    -298.950
  H      302.208     132.677    -301.231
  H      303.576     136.498    -300.376
  H      302.018     136.335    -301.216
  H      303.326     135.143    -301.497
  H      292.250     134.996    -302.072
  H      292.896     133.512    -301.412
  H      292.671     133.677    -303.137

 3  4  5  6  7  8  9  10  11  12  13  21  23  27  28  29  30  32 0
 6-311+G(2d,p)
 ****
 34  35 0
 6-311+G(2d,p)
 ****
 1  2  14  15  16  17  18  19  20  22  24  25  26 0
 3-21G
 ****
 31  33  36  37  38  39  40  41  42  43  44  45  46 0
 3-21G
 ****


