%nproc=1
%NoSave
%Mem=1900MB
#P OB98/GEN NMR

erre ene a

0 1
  C     -176.041     316.437      32.226
  O     -176.577     317.123      31.108
  H     -176.599     316.729      33.118
  H     -174.988     316.704      32.362
  H     -176.141     315.355      32.086
  P     -175.908     316.808      29.687
  C     -175.136     319.280      29.676
  O     -175.806     318.242      28.973
  C     -174.355     320.164      28.706
  O     -173.322     319.404      28.055
  C     -175.195     320.770      27.587
  O     -175.897     321.916      28.040
  C     -174.114     321.131      26.583
  O     -173.479     322.364      26.972
  C     -173.118     319.961      26.728
  N     -171.841     318.346      22.023
  C     -171.668     319.532      22.641
  N     -172.071     319.909      23.877
  C     -172.714     318.899      24.493
  C     -172.966     317.631      23.985
  C     -172.487     317.360      22.694
  N     -172.655     316.143      22.065
  N     -173.657     316.866      24.903
  C     -173.772     317.640      25.961
  N     -173.252     318.895      25.750
  O     -176.548     315.717      28.897
  O     -174.390     316.533      30.116
  H     -174.148     323.073      26.906
  H     -174.121     317.143      30.828
  H     -171.131     320.286      22.067
  H     -174.208     317.341      26.910
  H     -172.078     320.304      26.669
  H     -174.511     321.279      25.578
  H     -175.863     320.022      27.142
  H     -173.859     320.952      29.291
  H     -174.461     318.866      30.429
  H     -172.434     316.090      21.083
  H     -173.244     315.455      22.517
  H     -175.903     319.872      30.191
  P     -177.463     321.840      28.360
  C     -178.129     322.843      26.083
  O     -178.159     323.004      27.493
  O     -177.819     321.848      29.805
  O     -177.962     320.503      27.630
  H     -178.632     320.048      28.173
  H     -178.619     323.673      25.619
  H     -178.633     321.937      25.817
  H     -177.113     322.797      25.751

 6  7  8  9  10  11  12  13  14  15  25  28  32  33  34  35 0
 6-311+G(2d,p)
 ****
 36  39  40 0
 6-311+G(2d,p)
 ****
 1  2  3  4  5  16  17  18  19  20  21  22  23  24 0
 3-21G
 ****
 26  27  29  30  31  37  38  41  42  43  44  45  46  47 0
 3-21G
 ****
 48 0
 3-21G
 ****


