%nproc=1
%NoSave
%Mem=1900MB
#P OB98/GEN NMR

erre ene a

0 1
  C      223.334     -58.891     182.165
  O      223.369     -59.177     183.546
  P      222.793     -60.526     184.173
  C      220.488     -59.355     184.470
  O      221.192     -60.511     184.018
  C      219.344     -58.947     183.530
  O      219.857     -58.783     182.190
  C      218.293     -60.058     183.457
  O      217.295     -60.155     184.453
  C      217.778     -60.020     182.026
  O      216.544     -59.310     181.905
  C      218.892     -59.306     181.263
  N      218.523     -61.968     176.965
  C      217.666     -61.006     177.464
  N      216.477     -60.884     176.838
  N      217.947     -60.260     178.501
  C      219.134     -60.562     179.081
  C      220.072     -61.482     178.667
  C      219.764     -62.272     177.496
  O      220.458     -63.195     177.069
  N      221.119     -61.571     179.542
  C      220.804     -60.738     180.513
  N      219.588     -60.132     180.297
  O      223.380     -60.969     185.477
  O      223.228     -61.609     183.059
  H      215.860     -59.819     182.371
  H      223.434     -62.443     183.521
  H      218.218     -62.570     176.208
  H      221.398     -60.563     181.402
  H      218.492     -58.442     180.717
  H      217.582     -61.034     181.662
  H      216.168     -61.542     176.133
  H      218.839     -61.009     183.539
  H      215.765     -60.317     177.279
  H      218.936     -57.970     183.810
  H      221.220     -58.545     184.568
  H      220.081     -59.543     185.469
  P      217.112     -61.346     185.501
  C      214.590     -61.571     185.146
  O      215.842     -62.222     185.066
  O      216.600     -60.622     186.840
  O      218.350     -62.134     185.786
  H      216.795     -61.187     187.616
  H      213.797     -62.324     185.124
  H      214.465     -60.900     184.290
  H      214.503     -60.991     186.074
  H      223.777     -57.933     181.988
  H      222.318     -58.882     181.828
  H      223.880     -59.641     181.632

 3  4  5  6  7  8  9  10  11  12  23  26  30  31 0
 6-311+G(2d,p)
 ****
 33  35  36  37  38 0
 6-311+G(2d,p)
 ****
 1  2  13  14  15  16  17  18  19  20  21  22  24  25 0
 3-21G
 ****
 27  28  29  32  34  39  40  41  42  43  44  45  46  47  48  49 0
 3-21G
 ****


