%nproc=1
%NoSave
%Mem=1900MB
#P OB98/GEN NMR

erre ene a

0 1
  C     -286.230    -290.383     112.320
  O     -287.343    -290.874     111.571
  P     -287.862    -292.384     111.581
  C     -287.062    -294.641     110.488
  O     -286.759    -293.306     110.880
  C     -285.777    -295.462     110.288
  O     -285.096    -294.969     109.088
  C     -284.798    -295.320     111.458
  O     -284.182    -296.550     111.832
  C     -283.881    -294.195     110.997
  O     -282.639    -294.163     111.687
  C     -283.811    -294.439     109.489
  N     -280.160    -291.467     107.504
  C     -280.046    -292.551     108.353
  N     -278.792    -292.877     108.749
  N     -281.062    -293.234     108.802
  C     -282.260    -292.755     108.398
  C     -282.504    -291.684     107.564
  C     -281.369    -290.960     107.038
  O     -281.418    -290.009     106.265
  N     -283.854    -291.501     107.372
  C     -284.422    -292.445     108.099
  N     -283.491    -293.241     108.736
  O     -289.279    -292.589     111.156
  O     -287.754    -292.811     113.135
  H     -282.105    -293.434     111.306
  H     -288.477    -293.452     113.291
  H     -279.340    -290.989     107.173
  H     -285.484    -292.614     108.186
  H     -283.041    -295.171     109.229
  H     -284.390    -293.246     111.209
  H     -277.975    -292.315     108.543
  H     -285.323    -295.006     112.369
  H     -278.729    -293.522     109.538
  H     -286.054    -296.508     110.114
  H     -287.608    -294.561     109.541
  H     -287.724    -295.112     111.214
  P     -283.997    -297.169     113.297
  C     -282.382    -296.888     115.264
  O     -282.578    -296.715     113.874
  O     -283.802    -298.742     113.055
  O     -285.156    -296.923     114.222
  H     -284.531    -299.236     113.492
  H     -281.502    -296.307     115.574
  H     -282.197    -297.941     115.478
  H     -283.248    -296.541     115.831
  H     -286.104    -289.338     112.128
  H     -285.345    -290.909     112.029
  H     -286.408    -290.534     113.364

 3  4  5  6  7  8  9  10  11  12  23  26  30  31 0
 6-311+G(2d,p)
 ****
 33  35  36  37  38 0
 6-311+G(2d,p)
 ****
 1  2  13  14  15  16  17  18  19  20  21  22  24  25 0
 3-21G
 ****
 27  28  29  32  34  39  40  41  42  43  44  45  46  47  48  49 0
 3-21G
 ****


