%nproc=1
%NoSave
%Mem=1900MB
#P OB98/GEN NMR

erre ene a

0 1
  C      338.305     177.322     415.090
  O      339.357     176.983     414.214
  H      337.375     177.379     414.519
  H      338.493     178.297     415.550
  H      338.189     176.560     415.870
  P      340.805     176.670     414.826
  C      342.174     177.973     416.580
  O      341.374     178.055     415.409
  C      342.432     179.372     417.129
  O      341.186     179.997     417.513
  C      343.306     179.395     418.376
  O      344.669     179.169     418.068
  C      342.989     180.776     418.927
  O      343.762     181.783     418.263
  C      341.489     180.925     418.582
  N      340.632     180.684     419.749
  C      340.592     181.699     420.696
  O      341.214     182.755     420.590
  N      339.850     181.441     421.814
  C      339.281     180.238     422.131
  O      338.838     179.972     423.244
  C      339.303     179.227     421.068
  C      339.978     179.483     419.943
  O      341.740     175.927     413.934
  O      340.477     175.836     416.155
  H      340.634     174.886     415.985
  H      343.353     182.640     418.510
  H      339.846     182.159     422.527
  H      338.803     178.279     421.246
  H      340.041     178.739     419.158
  H      341.282     181.929     418.196
  H      343.200     180.844     419.998
  H      342.948     178.638     419.091
  H      342.883     179.982     416.332
  H      343.125     177.497     416.325
  H      341.658     177.356     417.326
  P      345.631     178.442     419.130
  C      346.513     179.043     421.469
  O      346.117     179.544     420.193
  O      346.723     177.616     418.539
  O      344.633     177.538     419.994
  H      344.994     176.626     420.038
  H      346.816     179.857     422.094
  H      347.331     178.364     421.347
  H      345.690     178.532     421.923

 6  7  8  9  10  11  12  13  14  15  16  27  31  32  33  34  35 0
 6-311+G(2d,p)
 ****
 36  37 0
 6-311+G(2d,p)
 ****
 1  2  3  4  5  17  18  19  20  21  22  23  24  25 0
 3-21G
 ****
 26  28  29  30  38  39  40  41  42  43  44  45 0
 3-21G
 ****


