%nproc=1
%NoSave
%Mem=1900MB
#P OB98/GEN NMR

erre ene a

0 1
  C      -51.050     -17.481      11.682
  O      -51.057     -18.887      11.782
  P      -49.742     -19.786      11.728
  C      -47.676     -20.051      13.307
  O      -48.677     -19.195      12.771
  C      -46.361     -19.289      13.530
  O      -45.806     -18.943      12.236
  C      -46.594     -17.970      14.285
  O      -45.616     -17.689      15.277
  C      -46.756     -16.958      13.159
  O      -46.538     -15.617      13.564
  C      -45.793     -17.505      12.110
  N      -44.347     -14.957       7.959
  C      -43.614     -15.273       9.086
  N      -42.405     -14.678       9.192
  N      -44.046     -16.066      10.030
  C      -45.315     -16.494       9.839
  C      -46.138     -16.249       8.765
  C      -45.636     -15.399       7.713
  O      -46.294     -15.001       6.751
  N      -47.384     -16.790       8.944
  C      -47.329     -17.334      10.143
  N      -46.103     -17.150      10.740
  O      -49.255     -20.179      10.372
  O      -50.236     -21.129      12.478
  H      -47.243     -15.380      14.194
  H      -49.774     -21.880      12.055
  H      -43.990     -14.274       7.302
  H      -48.148     -17.842      10.637
  H      -44.773     -17.162      12.287
  H      -47.793     -17.019      12.808
  H      -42.110     -13.951       8.555
  H      -47.527     -18.016      14.857
  H      -41.963     -14.692      10.107
  H      -45.646     -19.944      14.037
  H      -47.529     -20.851      12.573
  H      -48.020     -20.509      14.238
  P      -45.704     -16.686      16.515
  C      -47.366     -16.230      18.414
  O      -47.193     -16.728      17.101
  O      -45.617     -15.224      15.872
  O      -44.632     -16.863      17.539
  H      -45.073     -14.648      16.443
  H      -48.338     -16.562      18.790
  H      -47.346     -15.137      18.398
  H      -46.581     -16.604      19.079
  H      -52.053     -17.114      11.746
  H      -50.623     -17.192      10.744
  H      -50.468     -17.070      12.480

 3  4  5  6  7  8  9  10  11  12  23  26  30  31 0
 6-311+G(2d,p)
 ****
 33  35  36  37  38 0
 6-311+G(2d,p)
 ****
 1  2  13  14  15  16  17  18  19  20  21  22  24  25 0
 3-21G
 ****
 27  28  29  32  34  39  40  41  42  43  44  45  46  47  48  49 0
 3-21G
 ****


