%nproc=1
%NoSave
%Mem=1900MB
#P OB98/GEN NMR

erre ene a

0 1
  C     -831.654     777.485    -893.830
  O     -831.012     777.766    -895.090
  P     -831.244     779.228    -895.700
  C     -833.319     780.501    -896.630
  O     -832.741     779.270    -896.270
  C     -834.414     780.285    -897.720
  O     -835.156     779.048    -897.430
  C     -835.476     781.371    -897.730
  O     -835.031     782.545    -898.360
  C     -836.593     780.624    -898.490
  O     -836.304     780.626    -899.900
  C     -836.488     779.200    -897.920
  N     -840.076     775.945    -896.240
  C     -839.359     775.960    -897.390
  N     -838.422     776.889    -897.740
  C     -838.295     777.855    -896.840
  C     -838.985     777.976    -895.640
  C     -839.898     776.982    -895.340
  N     -840.677     776.934    -894.160
  N     -838.587     779.127    -894.940
  C     -837.673     779.632    -895.670
  N     -837.440     778.917    -896.810
  O     -830.338     779.184    -897.040
  O     -830.883     780.357    -894.770
  H     -835.513     780.074    -900.000
  H     -829.968     780.083    -897.200
  H     -839.497     775.150    -898.070
  H     -837.161     780.606    -895.470
  H     -836.644     778.428    -898.700
  H     -837.591     781.096    -898.330
  H     -835.840     781.632    -896.700
  H     -833.932     780.194    -898.680
  H     -832.552     781.168    -897.050
  H     -841.417     776.247    -894.120
  H     -840.662     777.769    -893.590
  H     -833.724     781.023    -895.740
  P     -835.268     783.928    -897.610
  C     -837.320     784.993    -896.490
  O     -836.845     783.930    -897.300
  O     -835.126     784.983    -898.820
  O     -834.353     784.192    -896.450
  H     -835.697     784.718    -899.590
  H     -838.398     784.898    -896.370
  H     -837.074     785.970    -896.980
  H     -836.876     784.999    -895.450
  H     -831.425     776.484    -893.529
  H     -832.713     777.592    -893.938
  H     -831.300     778.170    -893.089

 3  4  5  6  7  8  9  10  11  12  22  25  29  30  31  32 0
 6-311+G(2d,p)
 ****
 33  36  37 0
 6-311+G(2d,p)
 ****
 1  2  13  14  15  16  17  18  19  20  21  23  24  26 0
 3-21G
 ****
 27  28  34  35  38  39  40  41  42  43  44  45  46  47  48 0
 3-21G
 ****


