%nproc=1
%NoSave
%Mem=1900MB
#P OB98/GEN NMR

erre ene a

0 1
  C      310.288    -281.301     300.618
  O      308.998    -281.874     300.596
  H      310.308    -280.453     299.929
  H      311.036    -282.032     300.296
  H      310.525    -280.946     301.623
  P      308.781    -283.205     301.465
  C      310.338    -285.267     301.746
  O      309.756    -284.322     300.856
  C      310.351    -286.643     301.087
  O      311.032    -286.570     299.810
  C      311.100    -287.704     301.882
  O      310.337    -288.225     302.956
  C      311.363    -288.739     300.803
  O      310.244    -289.619     300.627
  C      311.594    -287.872     299.553
  N      313.009    -287.801     299.199
  C      313.294    -287.811     297.837
  O      312.427    -287.873     296.966
  N      314.619    -287.785     297.504
  C      315.666    -287.801     298.380
  O      316.834    -287.833     298.013
  C      315.307    -287.807     299.808
  C      314.014    -287.809     300.148
  O      307.320    -283.692     301.027
  O      308.890    -283.016     302.942
  H      306.686    -283.515     301.745
  H      309.506    -289.059     300.313
  H      314.846    -287.790     296.523
  H      316.112    -287.821     300.530
  H      313.722    -287.826     301.192
  H      311.048    -288.285     298.696
  H      312.221    -289.358     301.058
  H      312.059    -287.307     302.236
  H      309.314    -286.956     300.908
  H      309.748    -285.321     302.665
  H      311.353    -284.941     301.996
  P      311.119    -288.678     304.280
  C      312.836    -290.610     304.782
  O      311.927    -290.002     303.877
  O      309.902    -289.199     305.179
  O      311.930    -287.583     304.887
  H      309.158    -289.512     304.634
  H      313.269    -291.475     304.325
  H      312.315    -290.899     305.671
  H      313.609    -289.914     305.032

 6  7  8  9  10  11  12  13  14  15  16  27  31  32  33  34  35 0
 6-311+G(2d,p)
 ****
 36  37 0
 6-311+G(2d,p)
 ****
 1  2  3  4  5  17  18  19  20  21  22  23  24  25 0
 3-21G
 ****
 26  28  29  30  38  39  40  41  42  43  44  45 0
 3-21G
 ****


