%nproc=1
%NoSave
%Mem=1900MB
#P OB98/GEN NMR

erre ene a

0 1
  C     -245.328     179.287     486.774
  O     -246.236     179.481     485.711
  H     -245.581     178.353     487.285
  H     -245.400     180.110     487.491
  H     -244.304     179.211     486.391
  P     -246.060     180.823     484.849
  C     -246.458     179.606     482.598
  O     -246.935     180.570     483.527
  C     -247.538     179.255     481.580
  O     -248.497     178.347     482.155
  C     -248.338     180.451     481.073
  O     -247.641     181.109     480.025
  C     -249.600     179.770     480.566
  O     -249.364     179.226     479.254
  C     -249.800     178.633     481.578
  N     -254.631     178.043     483.241
  C     -254.057     177.803     482.040
  N     -252.784     178.032     481.655
  C     -252.065     178.562     482.661
  C     -252.517     178.870     483.935
  C     -253.862     178.579     484.218
  N     -254.446     178.837     485.446
  N     -251.501     179.408     484.701
  C     -250.443     179.374     483.912
  N     -250.739     178.902     482.659
  O     -244.653     181.273     484.632
  O     -246.977     181.841     485.680
  H     -249.159     179.979     478.669
  H     -247.797     181.400     485.974
  H     -254.714     177.368     481.285
  H     -249.431     179.648     484.207
  H     -250.142     177.713     481.089
  H     -250.442     180.460     480.471
  H     -248.604     181.142     481.889
  H     -247.059     178.726     480.738
  H     -246.140     178.695     483.128
  H     -255.449     178.781     485.494
  H     -253.907     179.353     486.123
  H     -245.587     180.028     482.092
  P     -247.331     182.677     480.088
  C     -245.433     182.778     478.350
  O     -246.804     183.054     478.614
  O     -246.452     183.089     481.218
  O     -248.772     183.372     480.137
  H     -248.698     184.293     480.441
  H     -245.198     183.068     477.347
  H     -245.250     181.731     478.471
  H     -244.820     183.328     479.033

 6  7  8  9  10  11  12  13  14  15  25  28  32  33  34  35 0
 6-311+G(2d,p)
 ****
 36  39  40 0
 6-311+G(2d,p)
 ****
 1  2  3  4  5  16  17  18  19  20  21  22  23  24 0
 3-21G
 ****
 26  27  29  30  31  37  38  41  42  43  44  45  46  47 0
 3-21G
 ****
 48 0
 3-21G
 ****


