%nproc=1
%NoSave
%Mem=1900MB
#P OB98/GEN NMR

erre ene a

0 1
  C     -336.089      71.255     156.951
  O     -336.999      71.888     157.827
  P     -338.584      71.725     157.714
  C     -339.068      73.001     159.926
  O     -339.276      72.935     158.519
  C     -339.579      74.315     160.546
  O     -338.749      75.409     160.106
  C     -340.997      74.613     160.048
  O     -342.115      74.015     160.669
  C     -341.063      76.133     159.933
  O     -341.687      76.741     161.066
  C     -339.591      76.549     159.848
  N     -340.021      80.524     156.730
  C     -340.323      80.435     158.077
  N     -340.999      81.483     158.599
  N     -340.011      79.411     158.822
  C     -339.422      78.402     158.135
  C     -339.062      78.374     156.809
  C     -339.377      79.535     156.003
  O     -339.204      79.616     154.788
  N     -338.552      77.157     156.440
  C     -338.644      76.425     157.533
  N     -339.203      77.126     158.575
  O     -339.130      70.343     157.890
  O     -338.835      72.151     156.178
  H     -341.647      77.707     160.947
  H     -339.578      71.610     155.841
  H     -340.358      81.308     156.187
  H     -338.353      75.383     157.611
  H     -339.354      77.289     160.621
  H     -341.646      76.431     159.058
  H     -341.384      82.225     158.025
  H     -341.048      74.254     159.011
  H     -341.384      81.384     159.536
  H     -339.492      74.293     161.637
  H     -337.994      72.882     160.106
  H     -339.571      72.158     160.410
  P     -343.565      73.819     160.032
  C     -344.611      73.425     162.331
  O     -344.663      74.185     161.138
  O     -343.725      72.228     159.884
  O     -343.768      74.481     158.702
  H     -344.395      72.024     159.206
  H     -345.556      73.538     162.873
  H     -343.795      73.795     162.965
  H     -344.451      72.364     162.115
  H     -335.089      71.516     157.227
  H     -336.278      71.576     155.948
  H     -336.212      70.194     157.015

 3  4  5  6  7  8  9  10  11  12  23  26  30  31 0
 6-311+G(2d,p)
 ****
 33  35  36  37  38 0
 6-311+G(2d,p)
 ****
 1  2  13  14  15  16  17  18  19  20  21  22  24  25 0
 3-21G
 ****
 27  28  29  32  34  39  40  41  42  43  44  45  46  47  48  49 0
 3-21G
 ****


