%nproc=1
%NoSave
%Mem=1900MB
#P OB98/GEN NMR

erre ene a

0 1
  C      398.703     -84.062     -31.535
  O      399.304     -83.045     -30.759
  H      399.070     -85.031     -31.185
  H      398.964     -83.948     -32.590
  H      397.616     -84.038     -31.415
  P      399.017     -81.518     -31.149
  C      396.604     -81.142     -30.298
  O      397.990     -80.950     -30.056
  C      395.844     -79.812     -30.199
  O      394.516     -79.987     -30.767
  C      395.660     -79.309     -28.755
  O      395.617     -77.877     -28.805
  C      394.297     -79.876     -28.413
  O      393.766     -79.277     -27.257
  C      393.561     -79.644     -29.737
  N      392.339     -80.427     -29.841
  C      391.141     -79.727     -29.683
  O      391.155     -78.517     -29.454
  N      389.957     -80.415     -29.757
  C      389.975     -81.703     -29.906
  N      388.769     -82.332     -29.954
  C      391.219     -82.490     -30.018
  C      392.354     -81.795     -29.983
  O      398.621     -81.272     -32.567
  O      400.383     -80.764     -30.787
  H      394.453     -79.200     -26.555
  H      400.872     -80.558     -31.605
  H      391.180     -83.566     -30.122
  H      393.321     -82.285     -30.059
  H      393.308     -78.584     -29.863
  H      394.367     -80.948     -28.206
  H      396.456     -79.641     -28.084
  H      396.359     -79.067     -30.817
  H      387.939     -81.756     -29.861
  H      396.231     -81.842     -29.544
  H      388.656     -83.329     -30.047
  H      396.450     -81.579     -31.292
  P      396.810     -76.950     -28.265
  C      398.644     -77.046     -30.077
  O      397.576     -76.293     -29.511
  O      397.711     -77.632     -27.287
  O      396.084     -75.699     -27.574
  H      396.638     -75.375     -26.841
  H      399.070     -76.502     -30.895
  H      398.271     -77.985     -30.429
  H      399.394     -77.216     -29.333

 6  7  8  9  10  11  12  13  14  15  16  26  30  31  32  33  35 0
 6-311+G(2d,p)
 ****
 37  38 0
 6-311+G(2d,p)
 ****
 1  2  3  4  5  17  18  19  20  21  22  23  24  25 0
 3-21G
 ****
 27  28  29  34  36  39  40  41  42  43  44  45  46 0
 3-21G
 ****


