%nproc=1
%NoSave
%Mem=1900MB
#P OB98/GEN NMR

erre ene a

0 1
  C      -28.680      21.947     -44.340
  O      -27.341      22.311     -44.068
  H      -29.141      22.730     -44.948
  H      -29.241      21.849     -43.406
  H      -28.710      21.005     -44.893
  P      -26.510      21.309     -43.130
  C      -26.481      22.900     -41.084
  O      -26.922      21.660     -41.619
  C      -26.931      23.046     -39.633
  O      -28.371      23.095     -39.547
  C      -26.474      21.916     -38.717
  O      -25.152      22.139     -38.257
  C      -27.506      22.004     -37.603
  O      -27.179      23.062     -36.676
  C      -28.788      22.338     -38.378
  N      -32.269      18.995     -36.899
  C      -31.637      19.996     -36.190
  N      -31.958      20.107     -34.882
  N      -30.757      20.809     -36.709
  C      -30.489      20.546     -38.009
  C      -31.046      19.584     -38.821
  C      -32.058      18.725     -38.245
  O      -32.713      17.876     -38.842
  N      -30.527      19.644     -40.089
  C      -29.637      20.616     -40.034
  N      -29.573      21.191     -38.791
  O      -25.008      21.858     -43.238
  O      -26.584      19.869     -43.505
  H      -26.451      22.767     -36.101
  H      -24.397      21.097     -43.246
  H      -32.960      18.418     -36.455
  H      -29.025      20.945     -40.862
  H      -29.459      22.983     -37.799
  H      -27.545      21.084     -37.017
  H      -32.389      19.351     -34.370
  H      -26.561      20.944     -39.216
  H      -31.440      20.793     -34.347
  H      -26.556      24.011     -39.269
  H      -26.907      23.714     -41.680
  H      -25.389      22.949     -41.139
  P      -24.310      20.881     -37.735
  C      -24.173      21.824     -35.320
  O      -24.558      20.742     -36.154
  O      -22.797      21.398     -37.833
  O      -24.499      19.632     -38.526
  H      -22.355      20.983     -38.596
  H      -24.399      21.587     -34.301
  H      -24.708      22.705     -35.608
  H      -23.122      21.996     -35.422

 6  7  8  9  10  11  12  13  14  15  26  29  33  34 0
 6-311+G(2d,p)
 ****
 36  38  39  40  41 0
 6-311+G(2d,p)
 ****
 1  2  3  4  5  16  17  18  19  20  21  22  23  24  25 0
 3-21G
 ****
 27  28  30  31  32  35  37  42  43  44  45  46  47 0
 3-21G
 ****
 48  49 0
 3-21G
 ****


