%nproc=1
%NoSave
%Mem=1900MB
#P OB98/GEN NMR

erre ene a

0 1
  C      403.230      29.403    -654.713
  O      402.748      28.852    -653.504
  H      402.741      30.373    -654.871
  H      402.981      28.749    -655.555
  H      404.309      29.560    -654.668
  P      403.374      27.473    -652.977
  C      404.410      28.543    -650.883
  O      404.663      27.856    -652.099
  C      405.704      29.111    -650.304
  O      406.333      29.964    -651.294
  C      405.502      29.940    -649.028
  O      406.589      29.688    -648.143
  C      405.566      31.373    -649.534
  O      405.994      32.286    -648.515
  C      406.556      31.255    -650.695
  N      408.031      35.893    -652.034
  C      408.495      35.070    -651.034
  N      409.479      35.561    -650.250
  N      408.027      33.864    -650.807
  C      407.050      33.502    -651.677
  C      406.509      34.227    -652.715
  C      407.023      35.561    -652.944
  O      406.648      36.340    -653.807
  N      405.515      33.522    -653.354
  C      405.464      32.368    -652.701
  N      406.364      32.315    -651.673
  O      403.631      26.440    -654.034
  O      402.323      26.956    -651.887
  H      406.759      31.872    -648.063
  H      401.743      26.267    -652.262
  H      408.424      36.816    -652.159
  H      404.788      31.560    -652.926
  H      407.600      31.311    -650.366
  H      404.577      31.685    -649.882
  H      409.901      36.469    -650.371
  H      404.551      29.723    -648.525
  H      409.854      34.958    -649.516
  H      406.393      28.275    -650.118
  H      403.965      27.838    -650.171
  H      403.693      29.357    -651.068
  P      406.401      28.625    -646.965
  C      407.927      26.935    -648.177
  O      406.659      27.154    -647.565
  O      405.150      28.767    -646.157
  O      407.707      28.858    -646.056
  H      407.485      28.644    -645.131
  H      407.981      25.928    -648.535
  H      408.703      27.100    -647.459
  H      408.049      27.612    -648.996

 6  7  8  9  10  11  12  13  14  15  26  29  33  34 0
 6-311+G(2d,p)
 ****
 36  38  39  40  41 0
 6-311+G(2d,p)
 ****
 1  2  3  4  5  16  17  18  19  20  21  22  23  24  25 0
 3-21G
 ****
 27  28  30  31  32  35  37  42  43  44  45  46  47 0
 3-21G
 ****
 48  49 0
 3-21G
 ****


