%nproc=1
%NoSave
%Mem=1900MB
#P OB98/GEN NMR

erre ene a

0 1
  C      127.457    -466.024      64.705
  O      126.301    -465.365      65.193
  H      127.605    -466.943      65.287
  H      128.331    -465.381      64.820
  H      127.318    -466.298      63.653
  P      125.896    -463.991      64.473
  C      127.180    -462.302      65.983
  O      127.125    -462.971      64.729
  C      127.771    -460.905      65.821
  O      126.835    -460.084      65.055
  C      128.038    -460.171      67.137
  O      129.247    -459.415      67.023
  C      126.867    -459.214      67.264
  O      127.144    -458.111      68.105
  C      126.650    -458.856      65.790
  N      123.402    -455.356      67.421
  C      124.691    -455.655      67.836
  N      125.188    -454.916      68.845
  N      125.433    -456.606      67.305
  C      124.812    -457.254      66.287
  C      123.543    -457.062      65.787
  C      122.727    -456.019      66.387
  O      121.585    -455.720      66.072
  N      123.274    -457.949      64.767
  C      124.377    -458.681      64.647
  N      125.334    -458.287      65.566
  O      124.740    -463.406      65.419
  O      125.468    -464.107      63.052
  H      126.343    -457.551      68.153
  H      124.106    -462.873      64.902
  H      122.892    -454.628      67.872
  H      124.536    -459.486      63.954
  H      127.371    -458.117      65.423
  H      125.992    -459.744      67.663
  H      124.701    -454.142      69.289
  H      128.117    -460.854      67.997
  H      126.141    -455.115      69.170
  H      128.682    -460.977      65.215
  H      127.802    -462.883      66.673
  H      126.168    -462.226      66.404
  P      130.577    -460.036      67.658
  C      130.890    -458.821      69.941
  O      130.456    -459.983      69.271
  O      131.692    -458.904      67.336
  O      130.979    -461.355      67.080
  H      132.288    -459.212      66.647
  H      130.745    -458.941      70.994
  H      130.326    -457.979      69.597
  H      131.929    -458.660      69.740

 6  7  8  9  10  11  12  13  14  15  26  29  33  34 0
 6-311+G(2d,p)
 ****
 36  38  39  40  41 0
 6-311+G(2d,p)
 ****
 1  2  3  4  5  16  17  18  19  20  21  22  23  24  25 0
 3-21G
 ****
 27  28  30  31  32  35  37  42  43  44  45  46  47 0
 3-21G
 ****
 48  49 0
 3-21G
 ****


