%nproc=1
%NoSave
%Mem=1900MB
#P OB98/GEN NMR

erre ene a

0 1
  C      -39.476     939.329    -305.104
  O      -40.683     938.637    -304.863
  H      -39.718     940.352    -305.406
  H      -38.922     938.854    -305.918
  H      -38.865     939.364    -304.204
  P      -40.632     937.088    -304.445
  C      -41.488     937.658    -302.092
  O      -40.421     937.088    -302.846
  C      -41.289     937.404    -300.595
  O      -41.202     935.976    -300.351
  C      -40.021     938.049    -300.017
  O      -40.331     938.725    -298.798
  C      -39.119     936.859    -299.724
  O      -38.152     937.127    -298.710
  C      -40.156     935.787    -299.383
  N      -39.593     934.445    -299.416
  C      -38.855     934.055    -298.291
  O      -38.716     934.828    -297.340
  N      -38.247     932.827    -298.296
  C      -38.328     932.066    -299.350
  N      -37.675     930.876    -299.292
  C      -39.072     932.446    -300.562
  C      -39.681     933.636    -300.525
  O      -39.648     936.271    -305.211
  O      -42.140     936.573    -304.606
  H      -38.622     937.460    -297.912
  H      -42.131     935.592    -304.709
  H      -39.106     931.793    -301.417
  H      -40.254     934.003    -301.370
  H      -40.587     935.959    -298.379
  H      -38.577     936.572    -300.632
  H      -39.549     938.748    -300.702
  H      -42.187     937.745    -300.065
  H      -37.172     930.658    -298.445
  H      -42.431     937.227    -302.429
  H      -37.653     930.216    -300.056
  H      -41.494     938.741    -302.268
  P      -39.675     940.176    -298.610
  C      -41.539     941.736    -297.703
  O      -40.823     941.277    -298.835
  O      -38.728     940.324    -299.898
  O      -38.901     940.320    -297.331
  H      -37.792     940.287    -299.612
  H      -42.264     942.461    -298.009
  H      -40.859     942.183    -297.008
  H      -42.035     940.911    -297.236

 6  7  8  9  10  11  12  13  14  15  16  26  30  31  32  33  35 0
 6-311+G(2d,p)
 ****
 37  38 0
 6-311+G(2d,p)
 ****
 1  2  3  4  5  17  18  19  20  21  22  23  24  25 0
 3-21G
 ****
 27  28  29  34  36  39  40  41  42  43  44  45  46 0
 3-21G
 ****


