%nproc=1
%NoSave
%Mem=1900MB
#P OB98/GEN NMR

erre ene a

0 1
  C      393.320    -278.273     -86.086
  O      393.508    -277.190     -85.195
  H      393.017    -277.876     -87.059
  H      392.537    -278.945     -85.724
  H      394.255    -278.822     -86.209
  P      393.684    -277.518     -83.633
  C      391.990    -277.863     -81.720
  O      392.221    -277.955     -83.120
  C      390.500    -277.708     -81.409
  O      390.019    -276.419     -81.846
  C      389.612    -278.715     -82.124
  O      389.778    -280.053     -81.706
  C      388.241    -278.063     -82.001
  O      387.624    -278.322     -80.743
  C      388.606    -276.564     -82.116
  N      388.248    -276.001     -83.414
  C      386.963    -275.483     -83.518
  O      386.141    -275.501     -82.598
  N      386.625    -274.964     -84.735
  C      387.417    -274.955     -85.848
  O      387.050    -274.488     -86.924
  C      388.755    -275.551     -85.688
  C      389.105    -276.038     -84.494
  O      394.317    -276.435     -82.811
  O      394.497    -278.897     -83.619
  H      386.750    -277.892     -80.762
  H      394.879    -279.077     -82.727
  H      385.701    -274.566     -84.832
  H      389.402    -275.572     -86.554
  H      390.086    -276.482     -84.353
  H      388.084    -275.985     -81.342
  H      387.552    -278.405     -82.776
  H      389.866    -278.703     -83.191
  H      390.371    -277.764     -80.324
  H      392.529    -276.983     -81.346
  H      392.389    -278.757     -81.222
  P      389.972    -281.275     -82.708
  C      388.423    -282.931     -84.011
  O      388.524    -281.780     -83.183
  O      390.980    -282.308     -82.317
  O      390.520    -280.529     -84.032
  H      391.150    -281.144     -84.467
  H      387.394    -283.124     -84.230
  H      388.843    -283.774     -83.503
  H      388.956    -282.762     -84.923

 6  7  8  9  10  11  12  13  14  15  16  26  31  32  33  34  35 0
 6-311+G(2d,p)
 ****
 36  37 0
 6-311+G(2d,p)
 ****
 1  2  3  4  5  17  18  19  20  21  22  23  24  25 0
 3-21G
 ****
 27  28  29  30  38  39  40  41  42  43  44  45 0
 3-21G
 ****


