%nproc=1
%NoSave
%Mem=1900MB
#P OB98/GEN NMR

erre ene a

0 1
  C      464.352     346.688    -724.827
  O      464.279     348.099    -724.759
  H      464.397     346.287    -723.810
  H      465.256     346.389    -725.362
  H      463.470     346.279    -725.326
  P      463.997     348.872    -726.136
  C      462.014     350.234    -727.104
  O      462.482     349.398    -726.062
  C      460.945     351.191    -726.582
  O      459.739     350.464    -726.254
  C      461.345     351.943    -725.314
  O      462.137     353.088    -725.609
  C      459.978     352.344    -724.782
  O      459.472     353.466    -725.538
  C      459.147     351.090    -725.079
  N      456.880     349.792    -720.731
  C      456.641     350.862    -721.568
  N      455.670     351.716    -721.198
  N      457.303     351.083    -722.676
  C      458.258     350.153    -722.929
  C      458.583     349.048    -722.169
  C      457.840     348.811    -720.953
  O      457.995     347.867    -720.183
  N      459.601     348.330    -722.747
  C      459.906     349.010    -723.832
  N      459.119     350.131    -723.987
  O      463.926     347.690    -727.218
  O      465.014     349.896    -726.516
  H      460.202     354.109    -725.613
  H      464.312     348.009    -728.058
  H      456.347     349.679    -719.886
  H      460.670     348.739    -724.542
  H      458.104     351.323    -725.323
  H      460.008     352.649    -723.736
  H      455.154     351.640    -720.333
  H      461.837     351.284    -724.594
  H      455.454     352.495    -721.811
  H      460.693     351.899    -727.385
  H      461.584     349.616    -727.901
  H      462.855     350.804    -727.513
  P      463.061     353.676    -724.433
  C      465.140     355.239    -724.457
  O      464.362     354.270    -725.160
  O      463.616     352.355    -723.714
  O      462.366     354.588    -723.480
  H      463.877     352.558    -722.800
  H      465.968     355.540    -725.064
  H      465.502     354.812    -723.545
  H      464.532     356.091    -724.235

 6  7  8  9  10  11  12  13  14  15  26  29  33  34 0
 6-311+G(2d,p)
 ****
 36  38  39  40  41 0
 6-311+G(2d,p)
 ****
 1  2  3  4  5  16  17  18  19  20  21  22  23  24  25 0
 3-21G
 ****
 27  28  30  31  32  35  37  42  43  44  45  46  47 0
 3-21G
 ****
 48  49 0
 3-21G
 ****


