%nproc=1
%NoSave
%Mem=1900MB
#P OB98/GEN NMR

erre ene a

0 1
  C      -69.617     124.436     163.603
  O      -68.851     123.383     164.197
  P      -67.624     122.793     163.346
  C      -67.443     120.909     161.534
  O      -68.224     121.548     162.534
  C      -68.133     119.628     161.070
  O      -68.201     118.665     162.150
  C      -69.570     119.826     160.613
  O      -69.629     120.442     159.337
  C      -70.087     118.394     160.658
  O      -69.683     117.679     159.480
  C      -69.356     117.829     161.895
  N      -70.212     117.730     163.070
  C      -71.072     116.636     163.103
  O      -71.140     115.806     162.196
  N      -71.871     116.537     164.209
  C      -71.914     117.422     165.248
  O      -72.644     117.275     166.219
  C      -71.018     118.584     165.134
  C      -70.221     118.684     164.066
  O      -66.739     122.129     164.500
  O      -66.930     123.831     162.531
  H      -67.274     121.744     165.215
  H      -68.733     117.475     159.593
  H      -72.491     115.744     164.258
  H      -71.046     119.320     165.927
  H      -69.555     119.536     163.963
  H      -68.964     116.828     161.676
  H      -71.181     118.344     160.712
  H      -70.112     120.438     161.345
  H      -67.536     119.194     160.258
  H      -66.456     120.660     161.934
  H      -67.297     121.604     160.701
  P      -70.130     121.970     159.291
  C      -72.421     123.136     159.765
  O      -71.710     121.937     159.556
  O      -70.005     122.289     157.727
  O      -69.347     122.885     160.173
  H      -70.344     121.574     157.165
  H      -73.483     122.951     159.579
  H      -72.080     123.927     159.094
  H      -72.297     123.458     160.802
  H      -70.397     124.732     164.274
  H      -70.047     124.091     162.686
  H      -68.980     125.273     163.405

 3  4  5  6  7  8  9  10  11  12  13  24  28  29  30  31  32 0
 6-311+G(2d,p)
 ****
 33  34 0
 6-311+G(2d,p)
 ****
 1  2  14  15  16  17  18  19  20  21  22  23  25  26  27 0
 3-21G
 ****
 35  36  37  38  39  40  41  42  43  44  45 0
 3-21G
 ****


