%nproc=1
%NoSave
%Mem=1900MB
#P OB98/GEN NMR

erre ene a

0 1
  C      510.697    -136.985     -66.805
  O      509.959    -135.784     -66.693
  H      510.222    -137.625     -67.556
  H      510.711    -137.513     -65.848
  H      511.721    -136.768     -67.124
  P      510.432    -134.743     -65.567
  C      509.261    -135.866     -63.531
  O      510.491    -135.549     -64.184
  C      509.348    -135.470     -62.060
  O      510.169    -136.428     -61.340
  C      510.005    -134.115     -61.816
  O      509.124    -133.027     -62.054
  C      510.384    -134.240     -60.348
  O      509.290    -133.898     -59.487
  C      510.755    -135.731     -60.221
  N      512.202    -135.927     -60.151
  C      512.689    -136.365     -58.920
  O      511.973    -136.578     -57.945
  N      514.050    -136.505     -58.838
  C      514.947    -136.217     -59.820
  O      516.159    -136.312     -59.666
  C      514.377    -135.736     -61.093
  C      513.043    -135.613     -61.201
  O      509.155    -133.787     -65.399
  O      511.666    -133.974     -65.900
  H      509.339    -132.922     -65.809
  H      509.586    -134.105     -58.577
  H      514.424    -136.830     -57.955
  H      515.064    -135.499     -61.896
  H      512.605    -135.260     -62.118
  H      510.304    -136.158     -59.315
  H      511.208    -133.574     -60.102
  H      510.919    -134.026     -62.416
  H      508.338    -135.489     -61.630
  H      509.078    -136.945     -63.602
  H      508.448    -135.338     -64.031
  P      509.742    -131.546     -62.001
  C      508.873    -131.321     -59.524
  O      509.952    -131.217     -60.450
  O      508.461    -130.681     -62.434
  O      510.948    -131.379     -62.871
  H      507.626    -131.131     -62.204
  H      509.217    -131.061     -58.545
  H      508.504    -132.326     -59.517
  H      508.088    -130.655     -59.815

 6  7  8  9  10  11  12  13  14  15  16  27  31  32  33  34  35 0
 6-311+G(2d,p)
 ****
 36  37 0
 6-311+G(2d,p)
 ****
 1  2  3  4  5  17  18  19  20  21  22  23  24  25 0
 3-21G
 ****
 26  28  29  30  38  39  40  41  42  43  44  45 0
 3-21G
 ****


