%nproc=1
%NoSave
%Mem=1900MB
#P OB98/GEN NMR

erre ene a

0 1
  C        7.808     457.624      -2.546
  O        8.158     457.525      -3.922
  P        7.083     456.924      -4.945
  C        4.727     457.775      -5.811
  O        6.036     458.058      -5.365
  C        4.163     459.010      -6.531
  O        4.100     460.135      -5.630
  C        5.002     459.445      -7.729
  O        4.643     458.750      -8.910
  C        4.716     460.932      -7.788
  O        3.428     461.172      -8.391
  C        4.683     461.294      -6.285
  N        5.971     461.613      -5.621
  C        6.055     462.718      -4.774
  O        5.124     463.482      -4.532
  N        7.280     462.929      -4.185
  C        8.344     462.079      -4.215
  O        9.394     462.290      -3.620
  C        8.149     460.856      -4.999
  C        7.001     460.684      -5.661
  O        6.219     455.924      -4.048
  O        7.679     456.236      -6.135
  H        3.262     462.129      -8.341
  H        6.337     455.005      -4.354
  H        7.382     463.764      -3.630
  H        8.953     460.129      -5.011
  H        6.848     459.782      -6.245
  H        4.017     462.147      -6.109
  H        5.443     461.451      -8.413
  H        6.069     459.315      -7.511
  H        3.138     458.780      -6.863
  H        4.082     457.506      -4.972
  H        4.745     456.915      -6.488
  P        5.563     457.553      -9.447
  C        6.394     455.449      -8.233
  O        5.302     456.325      -8.435
  O        6.995     457.888      -9.700
  O        4.809     457.068     -10.777
  H        5.211     457.487     -11.573
  H        6.142     454.763      -7.415
  H        7.291     456.011      -7.961
  H        6.575     454.864      -9.138
  H        8.627     458.042      -1.999
  H        7.584     456.650      -2.164
  H        6.950     458.255      -2.441

 3  4  5  6  7  8  9  10  11  12  13  23  28  29  30  31  32 0
 6-311+G(2d,p)
 ****
 33  34 0
 6-311+G(2d,p)
 ****
 1  2  14  15  16  17  18  19  20  21  22  24  25  26  27 0
 3-21G
 ****
 35  36  37  38  39  40  41  42  43  44  45 0
 3-21G
 ****


