%nproc=1
%NoSave
%Mem=1900MB
#P OB98/GEN NMR

erre ene a

0 1
  C     -426.014    -605.009    -215.177
  O     -425.477    -603.815    -214.606
  P     -424.797    -603.885    -213.159
  C     -423.651    -601.577    -213.273
  O     -424.612    -602.384    -212.605
  C     -424.300    -600.783    -214.412
  O     -425.449    -600.036    -213.918
  C     -423.334    -599.767    -215.041
  O     -423.614    -599.615    -216.443
  C     -423.718    -598.471    -214.354
  O     -423.294    -597.335    -215.104
  C     -425.230    -598.645    -214.234
  N     -426.080    -593.816    -212.754
  C     -425.530    -594.328    -213.870
  N     -425.357    -595.623    -214.209
  C     -425.838    -596.431    -213.250
  C     -426.434    -596.054    -212.052
  C     -426.544    -594.676    -211.810
  N     -427.077    -594.157    -210.653
  N     -426.798    -597.164    -211.317
  C     -426.380    -598.190    -212.032
  N     -425.825    -597.800    -213.222
  O     -423.587    -604.749    -213.052
  O     -425.986    -604.443    -212.237
  H     -422.336    -597.430    -215.266
  H     -425.618    -605.106    -211.608
  H     -425.180    -593.598    -214.596
  H     -426.441    -599.225    -211.729
  H     -425.739    -598.432    -215.180
  H     -423.244    -598.424    -213.364
  H     -422.278    -600.006    -214.920
  H     -424.671    -601.485    -215.164
  H     -422.848    -602.210    -213.664
  H     -427.012    -593.160    -210.518
  H     -427.290    -594.781    -209.888
  H     -423.176    -600.914    -212.543
  P     -422.361    -599.819    -217.435
  C     -423.405    -600.789    -219.628
  O     -422.948    -599.661    -218.918
  O     -421.579    -601.056    -217.165
  O     -421.530    -598.467    -217.196
  H     -422.052    -597.651    -217.258
  H     -423.884    -600.458    -220.550
  H     -424.140    -601.348    -219.042
  H     -422.567    -601.440    -219.882
  H     -426.428    -604.789    -216.139
  H     -426.781    -605.396    -214.539
  H     -425.236    -605.736    -215.281

 3  4  5  6  7  8  9  10  11  12  22  25  29  30  31  32 0
 6-311+G(2d,p)
 ****
 33  36  37 0
 6-311+G(2d,p)
 ****
 1  2  13  14  15  16  17  18  19  20  21  23  24  26 0
 3-21G
 ****
 27  28  34  35  38  39  40  41  42  43  44  45  46  47  48 0
 3-21G
 ****


