%nproc=1
%NoSave
%Mem=1900MB
#P OB98/GEN NMR

erre ene a

0 1
  C       97.032     -65.265      -3.233
  O       95.841     -64.657      -2.764
  P       94.506     -64.865      -3.633
  C       94.526     -62.620      -4.939
  O       94.695     -64.029      -4.990
  C       94.670     -62.002      -6.332
  O       95.880     -62.521      -6.954
  C       93.500     -62.299      -7.286
  O       93.336     -61.141      -8.111
  C       94.035     -63.474      -8.088
  O       93.333     -63.717      -9.294
  C       95.496     -63.057      -8.241
  N       96.185     -66.882     -11.564
  C       95.251     -65.906     -11.495
  N       95.136     -64.916     -10.585
  C       96.126     -64.988      -9.679
  C       97.136     -65.934      -9.610
  C       97.145     -66.918     -10.612
  N       98.096     -67.920     -10.672
  N       97.954     -65.701      -8.522
  C       97.446     -64.632      -7.944
  N       96.356     -64.154      -8.617
  O       93.416     -64.016      -2.829
  O       94.086     -66.291      -3.813
  H       92.396     -63.917      -9.100
  H       92.550     -64.466      -2.823
  H       94.496     -65.922     -12.276
  H       97.818     -64.176      -7.035
  H       95.618     -62.260      -8.985
  H       93.955     -64.384      -7.480
  H       92.561     -62.506      -6.766
  H       94.800     -60.919      -6.218
  H       95.294     -62.185      -4.291
  H       97.901     -68.684     -11.304
  H       98.673     -68.058      -9.852
  H       93.548     -62.387      -4.504
  P       92.019     -61.018      -9.021
  C       93.602     -61.284     -11.030
  O       92.429     -61.751     -10.393
  O       92.090     -59.475      -9.450
  O       90.740     -61.428      -8.378
  H       92.965     -59.241      -9.806
  H       93.814     -61.929     -11.888
  H       94.451     -61.319     -10.340
  H       93.450     -60.261     -11.386
  H       97.834     -65.044      -2.560
  H       97.267     -64.885      -4.205
  H       96.894     -66.325      -3.288

 3  4  5  6  7  8  9  10  11  12  22  25  29  30  31  32 0
 6-311+G(2d,p)
 ****
 33  36  37 0
 6-311+G(2d,p)
 ****
 1  2  13  14  15  16  17  18  19  20  21  23  24  26 0
 3-21G
 ****
 27  28  34  35  38  39  40  41  42  43  44  45  46  47  48 0
 3-21G
 ****


