%nproc=1
%NoSave
%Mem=1900MB
#P OB98/GEN NMR

erre ene a

0 1
  C       37.394     143.977     -12.929
  O       38.779     144.176     -12.739
  H       36.871     144.028     -11.972
  H       37.011     144.766     -13.582
  H       37.212     143.009     -13.403
  P       39.532     143.140     -11.773
  C       40.649     141.579     -13.515
  O       40.831     142.619     -12.565
  C       41.816     140.598     -13.442
  O       41.514     139.464     -14.293
  C       43.170     141.179     -13.884
  O       44.128     141.062     -12.828
  C       43.610     140.285     -15.033
  O       45.004     139.985     -15.011
  C       42.762     139.031     -14.850
  N       45.071     136.346     -18.511
  C       45.403     136.567     -17.221
  N       44.693     137.202     -16.268
  C       43.508     137.611     -16.754
  C       43.020     137.438     -18.038
  C       43.868     136.787     -18.948
  N       43.553     136.611     -20.277
  N       41.764     138.004     -18.164
  C       41.519     138.546     -16.989
  N       42.552     138.350     -16.111
  O       38.559     141.867     -11.771
  O       39.793     143.638     -10.391
  H       45.474     140.840     -15.009
  H       38.413     141.569     -10.853
  H       46.375     136.189     -16.914
  H       40.640     139.124     -16.735
  H       43.218     138.323     -14.149
  H       43.379     140.785     -15.981
  H       43.098     142.224     -14.205
  H       41.885     140.220     -12.414
  H       40.607     142.006     -14.523
  H       44.267     136.240     -20.882
  H       42.708     137.033     -20.632
  H       39.701     141.071     -13.312
  P       44.683     142.437     -12.203
  C       43.271     142.661     -10.028
  O       44.527     142.335     -10.609
  O       43.558     143.498     -12.617
  O       46.033     142.828     -12.702
  H       43.947     144.390     -12.678
  H       43.328     142.544      -8.966
  H       42.518     142.009     -10.418
  H       43.022     143.675     -10.262

 6  7  8  9  10  11  12  13  14  15  25  28  32  33  34  35 0
 6-311+G(2d,p)
 ****
 36  39  40 0
 6-311+G(2d,p)
 ****
 1  2  3  4  5  16  17  18  19  20  21  22  23  24 0
 3-21G
 ****
 26  27  29  30  31  37  38  41  42  43  44  45  46  47  48 0
 3-21G
 ****


