%nproc=1
%NoSave
%Mem=1900MB
#P OB98/GEN NMR

erre ene a

0 1
  C      425.495     851.663     476.772
  O      425.289     850.246     476.721
  P      424.212     849.571     477.696
  C      425.296     847.236     477.690
  O      424.144     847.997     477.392
  C      424.982     845.725     477.668
  O      423.865     845.437     478.553
  C      424.609     845.213     476.269
  O      425.356     844.066     475.873
  C      423.105     845.033     476.338
  O      422.614     844.106     475.390
  C      422.876     844.705     477.814
  N      421.513     845.018     478.244
  C      420.573     844.005     478.143
  O      420.822     842.898     477.644
  N      419.303     844.306     478.571
  C      418.879     845.522     479.008
  O      417.727     845.762     479.341
  C      419.905     846.584     479.045
  C      421.154     846.292     478.657
  O      422.894     850.266     477.778
  O      424.956     849.602     479.123
  H      421.627     844.067     475.471
  H      424.288     849.811     479.804
  H      418.611     843.569     478.529
  H      419.603     847.579     479.353
  H      421.918     847.048     478.656
  H      423.039     843.636     478.009
  H      422.628     846.001     476.121
  H      424.853     845.960     475.494
  H      425.864     845.204     478.044
  H      425.658     847.502     478.685
  H      426.095     847.497     476.994
  P      426.775     844.102     475.127
  C      426.119     841.861     474.003
  O      427.131     842.619     474.642
  O      427.867     844.806     475.863
  O      426.443     844.878     473.766
  H      427.171     845.487     473.546
  H      426.383     840.806     474.077
  H      426.062     842.143     472.948
  H      425.150     842.013     474.475
  H      426.243     851.941     476.059
  H      425.817     851.942     477.754
  H      424.579     852.165     476.541

 3  4  5  6  7  8  9  10  11  12  13  23  28  29  30  31  32 0
 6-311+G(2d,p)
 ****
 33  34 0
 6-311+G(2d,p)
 ****
 1  2  14  15  16  17  18  19  20  21  22  24  25  26  27 0
 3-21G
 ****
 35  36  37  38  39  40  41  42  43  44  45 0
 3-21G
 ****


