%nproc=1
%NoSave
%Mem=1900MB
#P OB98/GEN NMR

erre ene a

0 1
  C     -169.202      45.865     554.337
  O     -168.822      45.464     555.659
  P     -169.215      44.023     556.253
  C     -170.872      43.098     557.985
  O     -170.659      44.077     556.977
  C     -172.267      43.200     558.629
  O     -172.358      44.358     559.499
  C     -173.436      43.295     557.634
  O     -174.551      42.666     558.261
  C     -173.659      44.805     557.559
  O     -174.930      45.161     557.039
  C     -173.435      45.193     559.014
  N     -175.193      49.997     558.653
  C     -175.825      48.800     558.626
  N     -175.294      47.577     558.765
  C     -173.969      47.639     559.002
  C     -173.187      48.784     559.065
  C     -173.853      50.007     558.873
  N     -173.208      51.233     558.856
  N     -171.860      48.462     559.290
  C     -171.845      47.141     559.345
  N     -173.098      46.598     559.178
  O     -168.144      43.391     557.095
  O     -169.484      43.125     554.955
  H     -175.604      44.648     557.516
  H     -169.038      42.256     555.064
  H     -176.903      48.843     558.450
  H     -170.960      46.533     559.477
  H     -174.327      44.986     559.626
  H     -172.894      45.248     556.896
  H     -173.223      42.846     556.659
  H     -172.388      42.314     559.273
  H     -170.113      43.221     558.768
  H     -173.753      52.041     558.617
  H     -172.200      51.249     558.887
  H     -170.740      42.099     557.551
  P     -175.551      41.722     557.441
  C     -178.002      41.877     556.689
  O     -176.883      42.585     557.174
  O     -175.804      40.376     558.052
  O     -174.896      41.595     555.983
  H     -175.266      40.819     555.523
  H     -177.861      41.650     555.625
  H     -178.896      42.494     556.811
  H     -178.136      40.943     557.245
  H     -168.840      46.854     554.146
  H     -170.269      45.853     554.253
  H     -168.781      45.188     553.624

 3  4  5  6  7  8  9  10  11  12  22  25  29  30  31  32 0
 6-311+G(2d,p)
 ****
 33  36  37 0
 6-311+G(2d,p)
 ****
 1  2  13  14  15  16  17  18  19  20  21  23  24  26 0
 3-21G
 ****
 27  28  34  35  38  39  40  41  42  43  44  45  46  47  48 0
 3-21G
 ****


