%nproc=1
%NoSave
%Mem=1900MB
#P OB98/GEN NMR

erre ene a

0 1
  C       20.677      97.432    -256.838
  O       21.677      97.286    -255.851
  H       20.038      96.546    -256.861
  H       20.064      98.302    -256.594
  H       21.134      97.585    -257.820
  P       22.669      96.034    -256.004
  C       22.523      93.479    -255.585
  O       21.831      94.720    -255.605
  C       21.994      92.608    -254.449
  O       22.606      93.050    -253.210
  C       20.467      92.648    -254.267
  O       19.920      91.329    -254.379
  C       20.267      93.131    -252.839
  O       19.215      92.452    -252.157
  C       21.620      92.872    -252.186
  N       20.145      94.091    -247.463
  C       20.031      92.943    -248.166
  N       20.538      92.648    -249.380
  C       21.253      93.682    -249.859
  C       21.479      94.904    -249.249
  C       20.870      95.101    -247.999
  N       20.941      96.291    -247.307
  N       22.256      95.717    -250.054
  C       22.457      95.013    -251.150
  N       21.854      93.785    -251.085
  O       23.684      96.217    -254.779
  O       23.388      95.951    -257.309
  H       19.315      92.662    -251.208
  H       24.601      96.116    -255.097
  H       19.446      92.159    -247.694
  H       22.986      95.356    -252.029
  H       21.706      91.847    -251.807
  H       20.031      94.202    -252.857
  H       19.973      93.315    -254.982
  H       22.328      91.577    -254.622
  H       23.591      93.658    -255.428
  H       20.378      96.382    -246.475
  H       21.386      97.081    -247.750
  H       22.391      92.982    -256.551
  P       19.208      90.960    -255.775
  C       16.880      91.451    -256.834
  O       17.665      91.385    -255.651
  O       19.154      89.361    -255.736
  O       19.929      91.470    -256.976
  H       19.145      89.006    -256.646
  H       15.882      91.746    -256.584
  H       16.860      90.490    -257.303
  H       17.306      92.167    -257.505

 6  7  8  9  10  11  12  13  14  15  25  28  32  33  34  35 0
 6-311+G(2d,p)
 ****
 36  39  40 0
 6-311+G(2d,p)
 ****
 1  2  3  4  5  16  17  18  19  20  21  22  23  24 0
 3-21G
 ****
 26  27  29  30  31  37  38  41  42  43  44  45  46  47  48 0
 3-21G
 ****


