%nproc=1
%NoSave
%Mem=1900MB
#P OB98/GEN NMR

erre ene a

0 1
  C      369.085      -3.825     -77.743
  O      368.744      -3.162     -76.537
  P      367.746      -3.920     -75.530
  C      368.167      -5.865     -73.863
  O      368.466      -5.299     -75.133
  C      367.942      -7.375     -73.965
  O      366.693      -7.619     -74.654
  C      369.050      -8.124     -74.713
  O      369.235      -9.386     -74.072
  C      368.453      -8.354     -76.089
  O      369.052      -9.470     -76.744
  C      366.965      -8.523     -75.744
  N      366.099      -8.256     -76.888
  C      365.297      -9.311     -77.334
  O      365.398     -10.423     -76.817
  N      364.443      -9.093     -78.385
  C      364.464      -7.955     -79.007
  N      363.595      -7.788     -80.039
  C      365.386      -6.859     -78.646
  C      366.151      -7.067     -77.577
  O      366.557      -4.389     -76.494
  O      367.259      -3.089     -74.393
  H      368.590      -9.602     -77.602
  H      365.707      -4.398     -76.017
  H      365.388      -5.942     -79.222
  H      366.838      -6.310     -77.225
  H      366.764      -9.542     -75.389
  H      368.603      -7.464     -76.714
  H      369.995      -7.573     -74.733
  H      367.836      -7.775     -72.950
  H      362.984      -8.558     -80.276
  H      367.250      -5.411     -73.476
  H      363.543      -6.934     -80.583
  H      368.979      -5.642     -73.165
  P      370.701     -10.036     -74.124
  C      373.000      -9.244     -73.302
  O      371.694      -8.857     -73.676
  O      370.969     -10.097     -75.704
  O      370.906     -11.371     -73.491
  H      371.820     -10.538     -75.877
  H      373.603      -8.342     -73.156
  H      373.460      -9.852     -74.083
  H      372.969      -9.800     -72.359
  H      369.750      -3.210     -78.312
  H      368.197      -4.011     -78.311
  H      369.564      -4.754     -77.516

 3  4  5  6  7  8  9  10  11  12  13  21  23  27  28  29  30  32 0
 6-311+G(2d,p)
 ****
 34  35 0
 6-311+G(2d,p)
 ****
 1  2  14  15  16  17  18  19  20  22  24  25  26 0
 3-21G
 ****
 31  33  36  37  38  39  40  41  42  43  44  45  46 0
 3-21G
 ****


