%nproc=1
%NoSave
%Mem=1900MB
#P OB98/GEN NMR

erre ene a

0 1
  C     -314.847     117.365    -322.585
  O     -314.557     118.653    -323.137
  P     -313.851     119.821    -322.297
  C     -312.179     120.663    -324.073
  O     -313.333     120.961    -323.302
  C     -312.150     121.451    -325.388
  O     -313.090     120.902    -326.333
  C     -312.520     122.927    -325.253
  O     -311.459     123.677    -324.693
  C     -312.858     123.273    -326.700
  O     -311.670     123.561    -327.453
  C     -313.521     121.977    -327.198
  N     -314.975     122.065    -327.237
  C     -315.552     122.251    -328.502
  O     -314.834     122.402    -329.497
  N     -316.922     122.310    -328.598
  C     -317.648     122.252    -327.525
  N     -318.995     122.299    -327.689
  C     -317.078     122.131    -326.169
  C     -315.749     122.045    -326.105
  O     -312.811     119.340    -321.342
  O     -315.052     120.542    -321.508
  H     -311.238     124.316    -327.012
  H     -314.707     120.889    -320.663
  H     -317.715     122.115    -325.298
  H     -315.252     121.953    -325.148
  H     -313.157     121.718    -328.202
  H     -313.511     124.147    -326.778
  H     -313.430     123.020    -324.640
  H     -311.143     121.354    -325.815
  H     -319.356     122.371    -328.627
  H     -312.184     119.584    -324.303
  H     -319.660     122.255    -326.916
  H     -311.286     120.884    -323.477
  P     -311.404     123.907    -323.107
  C     -308.954     124.648    -323.341
  O     -310.232     124.966    -322.825
  O     -311.362     122.674    -322.269
  O     -312.725     124.758    -322.805
  H     -313.045     124.537    -321.908
  H     -308.370     125.576    -323.435
  H     -309.034     124.164    -324.318
  H     -308.434     123.977    -322.653
  H     -315.316     116.756    -323.329
  H     -315.504     117.475    -321.748
  H     -313.937     116.901    -322.266

 3  4  5  6  7  8  9  10  11  12  13  23  27  28  29  30  32 0
 6-311+G(2d,p)
 ****
 34  35 0
 6-311+G(2d,p)
 ****
 1  2  14  15  16  17  18  19  20  21  22  24  25  26 0
 3-21G
 ****
 31  33  36  37  38  39  40  41  42  43  44  45  46 0
 3-21G
 ****


