%nproc=1
%NoSave
%Mem=1900MB
#P OB98/GEN NMR

erre ene a

0 1
  C      517.539    -206.522    -459.204
  O      518.239    -206.091    -458.049
  P      519.295    -204.887    -458.156
  C      521.104    -206.505    -457.303
  O      520.756    -205.533    -458.286
  C      522.340    -207.277    -457.731
  O      522.141    -207.892    -459.018
  C      523.590    -206.414    -457.874
  O      524.135    -206.089    -456.609
  C      524.467    -207.312    -458.745
  O      525.136    -208.297    -457.935
  C      523.430    -207.977    -459.658
  N      522.584    -208.904    -464.604
  C      522.730    -209.729    -463.544
  N      522.990    -209.404    -462.262
  C      523.127    -208.071    -462.128
  C      523.042    -207.109    -463.123
  C      522.732    -207.569    -464.411
  N      522.516    -206.731    -465.486
  N      523.270    -205.857    -462.599
  C      523.507    -206.065    -461.319
  N      523.361    -207.374    -460.975
  O      519.160    -203.827    -457.122
  O      519.034    -204.289    -459.620
  H      525.853    -207.827    -457.452
  H      518.767    -203.356    -459.544
  H      522.609    -210.791    -463.757
  H      523.762    -205.295    -460.590
  H      523.644    -209.045    -459.798
  H      525.237    -206.757    -459.278
  H      523.347    -205.503    -458.435
  H      522.510    -208.077    -456.996
  H      520.253    -207.192    -457.184
  H      522.158    -207.147    -466.328
  H      522.321    -205.754    -465.303
  H      521.274    -206.001    -456.341
  P      525.274    -204.973    -456.498
  C      526.799    -206.837    -455.614
  O      526.682    -205.734    -456.489
  O      525.086    -203.961    -455.413
  O      525.254    -204.270    -457.942
  H      525.494    -203.325    -457.861
  H      526.947    -206.478    -454.596
  H      527.653    -207.437    -455.917
  H      525.892    -207.462    -455.661
  H      516.884    -207.327    -458.944
  H      518.239    -206.856    -459.941
  H      516.966    -205.709    -459.598

 3  4  5  6  7  8  9  10  11  12  22  25  29  30  31  32 0
 6-311+G(2d,p)
 ****
 33  36  37 0
 6-311+G(2d,p)
 ****
 1  2  13  14  15  16  17  18  19  20  21  23  24  26 0
 3-21G
 ****
 27  28  34  35  38  39  40  41  42  43  44  45  46  47  48 0
 3-21G
 ****


