%nproc=1
%NoSave
%Mem=1900MB
#P OB98/GEN NMR

erre ene a

0 1
  C      330.207    -258.763     -61.307
  O      330.379    -259.812     -60.363
  P      331.702    -260.729     -60.314
  C      332.571    -260.143     -57.948
  O      331.985    -261.142     -58.788
  C      332.300    -260.412     -56.463
  O      330.916    -260.128     -56.130
  C      332.531    -261.875     -56.037
  O      333.906    -262.137     -55.872
  C      331.698    -261.936     -54.759
  O      332.425    -261.382     -53.653
  C      330.500    -261.047     -55.114
  N      327.161    -264.745     -53.922
  C      328.173    -264.187     -53.237
  N      329.022    -263.207     -53.609
  C      328.718    -262.783     -54.857
  C      327.713    -263.252     -55.675
  C      326.903    -264.278     -55.167
  N      325.869    -264.855     -55.879
  N      327.720    -262.590     -56.894
  C      328.713    -261.717     -56.794
  N      329.338    -261.793     -55.572
  O      332.891    -260.122     -61.009
  O      331.277    -262.109     -61.006
  H      331.776    -261.204     -52.941
  H      332.064    -262.523     -61.413
  H      328.346    -264.582     -52.224
  H      328.993    -261.011     -57.559
  H      330.164    -260.440     -54.259
  H      331.420    -262.967     -54.488
  H      332.106    -262.559     -56.784
  H      332.935    -259.733     -55.876
  H      332.149    -259.174     -58.222
  H      325.365    -265.611     -55.456
  H      325.702    -264.551     -56.839
  H      333.654    -260.137     -58.128
  P      334.423    -263.625     -55.585
  C      335.787    -263.979     -57.744
  O      335.829    -263.777     -56.334
  O      333.432    -264.711     -55.854
  O      334.848    -263.597     -54.035
  H      334.714    -264.492     -53.662
  H      335.547    -265.018     -57.950
  H      336.773    -263.735     -58.167
  H      335.032    -263.315     -58.196
  H      329.258    -258.295     -61.151
  H      330.248    -259.165     -62.298
  H      330.986    -258.040     -61.183

 3  4  5  6  7  8  9  10  11  12  22  25  29  30  31  32 0
 6-311+G(2d,p)
 ****
 33  36  37 0
 6-311+G(2d,p)
 ****
 1  2  13  14  15  16  17  18  19  20  21  23  24  26 0
 3-21G
 ****
 27  28  34  35  38  39  40  41  42  43  44  45  46  47  48 0
 3-21G
 ****


