%nproc=1
%NoSave
%Mem=1900MB
#P OB98/GEN NMR

erre ene a

0 1
  C     -109.997    -549.551     -79.810
  O     -110.696    -548.917     -80.893
  P     -110.348    -547.392     -81.266
  C     -108.394    -546.142     -82.486
  O     -109.028    -547.377     -82.178
  C     -107.282    -546.357     -83.518
  O     -106.406    -547.432     -83.106
  C     -107.781    -546.761     -84.901
  O     -108.307    -545.653     -85.618
  C     -106.511    -547.339     -85.521
  O     -105.675    -546.296     -86.047
  C     -105.844    -548.010     -84.304
  N     -105.984    -549.465     -84.311
  C     -105.047    -550.175     -85.052
  O     -104.165    -549.640     -85.719
  N     -105.174    -551.542     -85.022
  C     -106.171    -552.240     -84.396
  O     -106.243    -553.466     -84.428
  C     -107.178    -551.432     -83.702
  C     -107.046    -550.106     -83.694
  O     -109.789    -546.829     -79.871
  O     -111.492    -546.565     -81.750
  H     -105.506    -545.676     -85.312
  H     -109.952    -545.868     -79.817
  H     -104.488    -552.077     -85.527
  H     -107.996    -551.949     -83.211
  H     -107.783    -549.487     -83.180
  H     -104.773    -547.768     -84.280
  H     -106.725    -548.029     -86.348
  H     -108.532    -547.556     -84.805
  H     -106.687    -545.430     -83.577
  H     -107.955    -545.726     -81.571
  H     -109.144    -545.438     -82.865
  P     -109.816    -545.223     -85.270
  C     -110.818    -543.289     -83.810
  O     -109.679    -544.022     -84.211
  O     -110.302    -546.487     -84.412
  O     -110.642    -544.941     -86.482
  H     -109.578    -546.868     -83.880
  H     -111.715    -543.917     -83.790
  H     -110.975    -542.459     -84.509
  H     -110.649    -542.887     -82.812
  H     -110.348    -550.556     -79.698
  H     -110.174    -549.009     -78.905
  H     -108.948    -549.561     -80.020

 3  4  5  6  7  8  9  10  11  12  13  23  28  29  30  31  32 0
 6-311+G(2d,p)
 ****
 33  34 0
 6-311+G(2d,p)
 ****
 1  2  14  15  16  17  18  19  20  21  22  24  25  26 0
 3-21G
 ****
 27  35  36  37  38  39  40  41  42  43  44  45 0
 3-21G
 ****


