%nproc=1
%NoSave
%Mem=1900MB
#P OB98/GEN NMR

erre ene a

0 1
  C      -50.445    -194.989     -51.929
  O      -51.196    -193.801     -51.744
  P      -50.536    -192.603     -50.912
  C      -51.758    -192.890     -48.636
  O      -51.608    -192.121     -49.819
  C      -52.885    -192.320     -47.770
  O      -52.572    -190.937     -47.420
  C      -54.258    -192.318     -48.455
  O      -55.248    -192.541     -47.438
  C      -54.368    -190.896     -48.967
  O      -55.703    -190.501     -49.247
  C      -53.708    -190.140     -47.808
  N      -53.315    -188.779     -48.167
  C      -54.324    -187.905     -48.562
  O      -55.514    -188.211     -48.629
  N      -53.912    -186.657     -48.949
  C      -52.621    -186.237     -49.064
  O      -52.315    -185.144     -49.528
  C      -51.599    -187.201     -48.633
  C      -51.984    -188.408     -48.210
  O      -50.505    -191.400     -51.966
  O      -49.183    -192.898     -50.360
  H      -55.706    -189.536     -49.368
  H      -49.612    -191.306     -52.350
  H      -54.632    -186.007     -49.228
  H      -50.562    -186.890     -48.691
  H      -51.251    -189.144     -47.905
  H      -54.386    -190.106     -46.945
  H      -53.787    -190.795     -49.891
  H      -54.353    -193.064     -49.249
  H      -52.927    -192.889     -46.832
  H      -50.825    -192.865     -48.071
  H      -51.964    -193.934     -48.897
  P      -56.522    -193.446     -47.814
  C      -58.053    -191.348     -48.117
  O      -57.821    -192.579     -47.464
  O      -56.463    -194.542     -46.647
  O      -56.458    -194.030     -49.188
  H      -56.271    -194.153     -45.777
  H      -57.698    -191.368     -49.152
  H      -57.538    -190.550     -47.578
  H      -59.126    -191.143     -48.116
  H      -51.019    -195.688     -52.501
  H      -50.210    -195.415     -50.976
  H      -49.539    -194.761     -52.450

 3  4  5  6  7  8  9  10  11  12  13  23  28  29  30  31  32 0
 6-311+G(2d,p)
 ****
 33  34 0
 6-311+G(2d,p)
 ****
 1  2  14  15  16  17  18  19  20  21  22  24  25  26 0
 3-21G
 ****
 27  35  36  37  38  39  40  41  42  43  44  45 0
 3-21G
 ****


