%nproc=1
%NoSave
%Mem=1900MB
#P OB98/GEN NMR

erre ene a

0 1
  C      172.334    -114.645      21.677
  O      173.225    -115.406      20.885
  H      171.698    -114.052      21.013
  H      172.881    -113.967      22.338
  H      171.699    -115.310      22.270
  P      174.446    -116.148      21.620
  C      175.938    -114.276      20.656
  O      175.573    -115.017      21.818
  C      177.172    -113.412      20.915
  O      176.905    -112.432      21.940
  C      178.378    -114.187      21.424
  O      178.936    -115.086      20.493
  C      179.244    -113.077      21.999
  O      180.018    -112.415      20.997
  C      178.170    -112.113      22.561
  N      178.084    -112.168      24.018
  C      178.936    -111.316      24.709
  O      179.742    -110.563      24.161
  N      178.859    -111.376      26.075
  C      178.064    -112.218      26.796
  O      178.055    -112.238      28.022
  C      177.213    -113.126      26.009
  C      177.260    -113.059      24.675
  O      174.947    -117.393      20.949
  O      173.908    -116.389      23.108
  H      180.734    -113.027      20.741
  H      174.467    -117.051      23.586
  H      179.457    -110.753      26.597
  H      176.579    -113.817      26.547
  H      176.638    -113.717      24.071
  H      178.402    -111.077      22.277
  H      179.940    -113.447      22.754
  H      178.058    -114.803      22.276
  H      177.408    -112.871      19.992
  H      175.093    -113.628      20.394
  H      176.126    -114.966      19.828
  P      179.323    -116.595      20.841
  C      181.792    -115.867      21.306
  O      180.646    -116.588      21.746
  O      179.242    -117.581      19.719
  O      178.183    -116.985      21.915
  H      177.980    -117.936      21.788
  H      182.577    -115.970      22.026
  H      181.542    -114.832      21.196
  H      182.119    -116.257      20.365

 6  7  8  9  10  11  12  13  14  15  16  26  31  32  33  34  35 0
 6-311+G(2d,p)
 ****
 36  37 0
 6-311+G(2d,p)
 ****
 1  2  3  4  5  17  18  19  20  21  22  23  24  25 0
 3-21G
 ****
 27  28  29  30  38  39  40  41  42  43  44  45 0
 3-21G
 ****


