%nproc=1
%NoSave
%Mem=1900MB
#P OB98/GEN NMR

erre ene a

0 1
  C     -320.343    -779.381      21.293
  O     -319.254    -780.096      20.749
  H     -321.182    -780.071      21.428
  H     -320.654    -778.583      20.605
  H     -320.070    -778.950      22.264
  P     -317.858    -779.314      20.624
  C     -316.398    -781.427      21.184
  O     -316.734    -780.397      20.258
  C     -316.075    -782.716      20.438
  O     -317.285    -783.410      20.036
  C     -315.330    -782.505      19.132
  O     -313.987    -782.097      19.323
  C     -315.473    -783.893      18.504
  O     -314.533    -784.816      19.063
  C     -316.920    -784.256      18.905
  N     -317.862    -784.109      17.808
  C     -317.825    -785.117      16.826
  O     -317.045    -786.051      16.933
  N     -318.661    -784.999      15.736
  C     -319.471    -784.009      15.651
  N     -320.268    -783.955      14.544
  C     -319.573    -782.938      16.669
  C     -318.735    -783.048      17.699
  O     -317.520    -778.954      22.147
  O     -317.870    -778.139      19.699
  H     -314.763    -784.914      20.005
  H     -317.536    -779.730      22.743
  H     -320.279    -782.126      16.548
  H     -318.740    -782.310      18.490
  H     -316.965    -785.294      19.263
  H     -315.289    -783.871      17.426
  H     -315.866    -781.783      18.499
  H     -315.514    -783.375      21.115
  H     -320.169    -784.701      13.852
  H     -317.215    -781.588      21.894
  H     -320.926    -783.212      14.344
  H     -315.519    -781.085      21.752
  P     -313.413    -780.797      18.570
  C     -312.035    -779.844      20.527
  O     -311.996    -780.487      19.270
  O     -314.337    -779.642      18.514
  O     -312.970    -781.371      17.139
  H     -312.297    -782.078      17.172
  H     -311.037    -779.696      20.883
  H     -312.575    -780.452      21.222
  H     -312.523    -778.897      20.428

 6  7  8  9  10  11  12  13  14  15  16  26  30  31  32  33  35 0
 6-311+G(2d,p)
 ****
 37  38 0
 6-311+G(2d,p)
 ****
 1  2  3  4  5  17  18  19  20  21  22  23  24  25 0
 3-21G
 ****
 27  28  29  34  36  39  40  41  42  43  44  45  46 0
 3-21G
 ****


