%nproc=1
%NoSave
%Mem=1900MB
#P OB98/GEN NMR

erre ene a

0 1
  C       80.952     228.082    -567.898
  O       80.572     229.370    -567.460
  H       81.958     228.121    -568.322
  H       80.959     227.406    -567.039
  H       80.246     227.701    -568.643
  P       80.204     230.450    -568.589
  C       77.656     230.328    -568.104
  O       78.699     230.127    -569.048
  C       76.435     229.486    -568.469
  O       76.868     228.112    -568.699
  C       75.340     229.456    -567.389
  O       74.065     229.482    -568.036
  C       75.534     228.101    -566.735
  O       74.347     227.608    -566.128
  C       76.011     227.262    -567.917
  N       75.419     222.361    -566.705
  C       74.629     223.224    -567.380
  N       74.890     224.505    -567.707
  C       76.134     224.851    -567.328
  C       77.051     224.079    -566.639
  C       76.643     222.777    -566.310
  N       77.410     221.911    -565.563
  N       78.195     224.811    -566.381
  C       77.957     226.009    -566.879
  N       76.721     226.084    -567.459
  O       81.089     229.962    -569.832
  O       80.476     231.872    -568.233
  H       74.064     228.231    -565.431
  H       81.976     230.367    -569.780
  H       73.662     222.844    -567.684
  H       78.626     226.858    -566.819
  H       75.184     226.926    -568.558
  H       76.312     228.172    -565.963
  H       75.409     230.280    -566.669
  H       76.030     229.856    -569.418
  H       77.372     231.384    -568.105
  H       76.995     221.037    -565.281
  H       78.279     222.242    -565.167
  H       78.019     230.061    -567.106
  P       73.562     230.890    -568.614
  C       73.620     230.156    -571.112
  O       74.101     231.050    -570.113
  O       74.427     231.958    -567.793
  O       72.095     231.125    -568.440
  H       73.917     232.774    -567.650
  H       74.073     230.394    -572.052
  H       72.557     230.251    -571.194
  H       73.868     229.151    -570.841

 6  7  8  9  10  11  12  13  14  15  25  28  32  33  34  35 0
 6-311+G(2d,p)
 ****
 36  39  40 0
 6-311+G(2d,p)
 ****
 1  2  3  4  5  16  17  18  19  20  21  22  23  24 0
 3-21G
 ****
 26  27  29  30  31  37  38  41  42  43  44  45  46  47 0
 3-21G
 ****
 48 0
 3-21G
 ****


