%nproc=1
%NoSave
%Mem=1900MB
#P OB98/GEN NMR

erre ene a

0 1
  C      360.413     142.833     509.544
  O      359.823     143.660     510.523
  H      360.611     141.852     509.985
  H      361.361     143.269     509.216
  H      359.752     142.702     508.684
  P      359.107     145.014     510.058
  C      359.809     147.473     509.699
  O      360.230     146.161     510.044
  C      360.990     148.447     509.689
  O      361.500     148.605     511.036
  C      362.139     147.888     508.842
  O      362.936     148.921     508.267
  C      362.971     147.128     509.865
  O      364.319     146.930     509.450
  C      362.818     148.026     511.095
  N      366.090     146.002     514.435
  C      366.333     146.528     513.182
  N      367.617     146.492     512.752
  N      365.403     147.032     512.411
  C      364.157     146.935     512.939
  C      363.788     146.411     514.156
  C      364.833     145.894     515.013
  O      364.672     145.401     516.125
  N      362.427     146.470     514.334
  C      361.971     147.019     513.223
  N      362.991     147.333     512.352
  O      358.210     145.423     511.322
  O      358.282     144.919     508.810
  H      364.724     147.811     509.336
  H      357.461     145.978     511.041
  H      366.846     145.643     514.991
  H      360.932     147.215     513.008
  H      363.550     148.845     511.066
  H      362.526     146.137     510.005
  H      368.327     145.961     513.229
  H      361.783     147.228     508.050
  H      367.763     146.597     511.745
  H      360.663     149.437     509.355
  H      359.076     147.784     510.449
  H      359.307     147.465     508.727
  P      363.659     148.606     506.871
  C      366.183     148.331     506.208
  O      365.171     148.178     507.187
  O      363.789     150.044     506.182
  O      362.908     147.642     506.014
  H      363.141     150.133     505.467
  H      367.117     147.992     506.605
  H      366.264     149.363     505.937
  H      365.932     147.753     505.343

 6  7  8  9  10  11  12  13  14  15  26  29  33  34 0
 6-311+G(2d,p)
 ****
 36  38  39  40  41 0
 6-311+G(2d,p)
 ****
 1  2  3  4  5  16  17  18  19  20  21  22  23  24  25 0
 3-21G
 ****
 27  28  30  31  32  35  37  42  43  44  45  46  47 0
 3-21G
 ****
 48  49 0
 3-21G
 ****


