%nproc=1
%NoSave
%Mem=1900MB
#P OB98/GEN NMR

erre ene a

0 1
  C      516.340    -253.456    -191.497
  O      516.302    -252.458    -190.492
  H      515.820    -253.077    -192.382
  H      515.838    -254.363    -191.153
  H      517.377    -253.678    -191.762
  P      516.983    -252.831    -189.088
  C      514.914    -252.588    -187.569
  O      515.793    -253.489    -188.230
  C      513.849    -253.359    -186.784
  O      513.117    -254.205    -187.706
  C      514.434    -254.258    -185.690
  O      513.571    -254.229    -184.554
  C      514.402    -255.642    -186.312
  O      514.350    -256.683    -185.342
  C      513.167    -255.554    -187.211
  N      512.928    -260.496    -188.451
  C      512.688    -259.842    -187.294
  N      512.758    -258.515    -187.053
  C      513.074    -257.849    -188.176
  C      513.352    -258.377    -189.425
  C      513.277    -259.775    -189.545
  N      513.543    -260.456    -190.708
  N      513.682    -257.372    -190.315
  C      513.593    -256.251    -189.617
  N      513.244    -256.495    -188.316
  O      517.718    -251.721    -188.413
  O      517.871    -254.101    -189.482
  H      513.478    -256.651    -184.897
  H      517.378    -254.717    -190.059
  H      512.406    -260.466    -186.446
  H      513.780    -255.258    -190.005
  H      512.240    -255.765    -186.668
  H      515.311    -255.794    -186.917
  H      515.444    -253.965    -185.399
  H      513.134    -252.644    -186.370
  H      514.423    -251.930    -188.299
  H      513.447    -261.454    -190.707
  H      513.785    -259.932    -191.540
  H      515.514    -251.975    -186.894
  P      513.845    -253.130    -183.417
  C      514.254    -254.821    -181.501
  O      514.806    -253.775    -182.299
  O      512.645    -252.415    -182.898
  O      514.839    -252.113    -184.161
  H      514.623    -251.199    -183.878
  H      514.989    -255.161    -180.801
  H      513.959    -255.633    -182.132
  H      513.401    -254.453    -180.971

 6  7  8  9  10  11  12  13  14  15  25  28  32  33  34  35 0
 6-311+G(2d,p)
 ****
 36  39  40 0
 6-311+G(2d,p)
 ****
 1  2  3  4  5  16  17  18  19  20  21  22  23  24 0
 3-21G
 ****
 26  27  29  30  31  37  38  41  42  43  44  45  46  47 0
 3-21G
 ****
 48 0
 3-21G
 ****


