%nproc=1
%NoSave
%Mem=1900MB
#P OB98/GEN NMR

erre ene a

0 1
  C      177.982    -205.320     -16.117
  O      176.648    -204.870     -16.180
  P      175.883    -204.187     -14.963
  C      176.292    -201.713     -15.712
  O      176.496    -202.721     -14.728
  C      175.967    -200.365     -15.059
  O      174.725    -200.498     -14.322
  C      177.050    -199.950     -14.044
  O      177.390    -198.569     -14.092
  C      176.503    -200.490     -12.728
  O      177.066    -199.871     -11.583
  C      174.998    -200.307     -12.919
  N      172.945    -201.370      -8.389
  C      173.534    -200.199      -8.824
  N      173.776    -199.270      -7.871
  N      173.898    -199.987     -10.067
  C      173.700    -201.052     -10.875
  C      173.119    -202.262     -10.560
  C      172.694    -202.467      -9.197
  O      172.270    -203.525      -8.742
  N      173.149    -203.128     -11.622
  C      173.776    -202.467     -12.569
  N      174.161    -201.206     -12.150
  O      175.634    -205.044     -13.762
  O      174.448    -203.850     -15.631
  H      176.616    -200.235     -10.797
  H      173.777    -203.947     -14.927
  H      172.761    -201.501      -7.401
  H      174.008    -202.847     -13.552
  H      174.680    -199.300     -12.646
  H      176.763    -201.556     -12.676
  H      173.641    -199.456      -6.892
  H      177.994    -200.452     -14.268
  H      174.427    -198.518      -8.113
  H      175.816    -199.612     -15.838
  H      175.452    -202.052     -16.327
  H      177.171    -201.630     -16.361
  P      178.837    -197.898     -14.087
  C      178.659    -196.775     -16.394
  O      179.328    -197.743     -15.611
  O      179.817    -199.021     -13.511
  O      178.944    -196.650     -13.276
  H      180.480    -198.604     -12.922
  H      178.894    -196.960     -17.443
  H      179.005    -195.780     -16.117
  H      177.574    -196.848     -16.244
  H      178.262    -205.739     -17.061
  H      178.071    -206.066     -15.355
  H      178.626    -204.497     -15.887

 3  4  5  6  7  8  9  10  11  12  23  26  30  31 0
 6-311+G(2d,p)
 ****
 33  35  36  37  38 0
 6-311+G(2d,p)
 ****
 1  2  13  14  15  16  17  18  19  20  21  22  24  25 0
 3-21G
 ****
 27  28  29  32  34  39  40  41  42  43  44  45  46  47  48  49 0
 3-21G
 ****


