%nproc=1
%NoSave
%Mem=1900MB
#P OB98/GEN NMR

erre ene a

0 1
  C       22.234      -4.223     328.233
  O       21.435      -3.517     329.160
  H       23.249      -3.822     328.266
  H       21.834      -4.084     327.226
  H       22.266      -5.289     328.479
  P       19.996      -4.132     329.504
  C       18.498      -2.959     327.745
  O       19.153      -4.156     328.135
  C       17.182      -3.281     327.033
  O       16.345      -4.056     327.929
  C       16.388      -2.039     326.609
  O       15.786      -2.287     325.336
  C       15.309      -1.930     327.674
  O       14.152      -1.238     327.210
  C       15.067      -3.395     328.009
  N       10.734      -3.426     330.583
  C       10.965      -3.337     329.224
  N        9.878      -3.236     328.429
  N       12.158      -3.350     328.689
  C       13.149      -3.495     329.602
  C       13.053      -3.585     330.970
  C       11.727      -3.543     331.550
  O       11.460      -3.592     332.747
  N       14.293      -3.688     331.550
  C       15.134      -3.657     330.534
  N       14.489      -3.549     329.332
  O       19.297      -2.970     330.355
  O       20.015      -5.422     330.255
  H       13.754      -1.777     326.493
  H       19.136      -3.281     331.265
  H        9.796      -3.400     330.942
  H       16.212      -3.701     330.614
  H       14.386      -3.879     327.299
  H       15.704      -1.389     328.541
  H        8.929      -3.268     328.766
  H       17.001      -1.137     326.550
  H       10.019      -3.208     327.426
  H       17.401      -3.919     326.170
  H       19.151      -2.398     327.070
  H       18.299      -2.349     328.634
  P       16.311      -1.413     324.098
  C       15.181       0.893     324.441
  O       16.373       0.126     324.556
  O       15.081      -1.454     323.073
  O       17.560      -1.940     323.473
  H       15.300      -2.023     322.313
  H       15.365       1.891     324.779
  H       14.413       0.450     325.040
  H       14.868       0.914     323.418

 6  7  8  9  10  11  12  13  14  15  26  29  33  34 0
 6-311+G(2d,p)
 ****
 36  38  39  40  41 0
 6-311+G(2d,p)
 ****
 1  2  3  4  5  16  17  18  19  20  21  22  23  24  25 0
 3-21G
 ****
 27  28  30  31  32  35  37  42  43  44  45  46  47 0
 3-21G
 ****
 48  49 0
 3-21G
 ****


