%nproc=1
%NoSave
%Mem=1900MB
#P OB98/GEN NMR

erre ene a

0 1
  C      318.725    -462.587    -383.704
  O      319.996    -463.058    -383.296
  P      320.894    -462.083    -382.379
  C      321.704    -464.040    -380.871
  O      321.019    -462.797    -380.952
  C      320.709    -465.198    -380.973
  O      320.030    -465.171    -382.243
  C      321.351    -466.582    -380.892
  O      321.613    -466.974    -379.558
  C      320.253    -467.446    -381.494
  O      319.242    -467.710    -380.511
  C      319.700    -466.532    -382.602
  N      319.694    -469.862    -386.428
  C      318.856    -469.762    -385.327
  N      317.917    -470.739    -385.208
  N      318.922    -468.814    -384.442
  C      319.919    -467.921    -384.677
  C      320.810    -467.909    -385.729
  C      320.733    -468.979    -386.713
  O      321.479    -469.145    -387.661
  N      321.669    -466.850    -385.643
  C      321.288    -466.205    -384.552
  N      320.261    -466.848    -383.907
  O      319.917    -460.845    -382.088
  O      322.182    -461.659    -383.005
  H      319.667    -468.225    -379.794
  H      320.437    -460.075    -381.778
  H      319.607    -470.619    -387.079
  H      321.742    -465.291    -384.178
  H      318.608    -466.601    -382.687
  H      320.624    -468.413    -381.841
  H      317.855    -471.529    -385.826
  H      322.246    -466.641    -381.511
  H      317.327    -470.728    -384.384
  H      319.960    -465.077    -380.179
  H      322.231    -464.100    -379.909
  H      322.439    -464.106    -381.678
  P      323.149    -467.267    -379.177
  C      323.150    -466.110    -376.846
  O      323.577    -466.067    -378.198
  O      323.928    -466.939    -380.536
  O      323.420    -468.645    -378.684
  H      324.769    -467.451    -380.586
  H      323.739    -465.379    -376.271
  H      323.310    -467.097    -376.415
  H      322.084    -465.838    -376.774
  H      318.244    -463.332    -384.302
  H      318.844    -461.691    -384.277
  H      318.127    -462.382    -382.841

 3  4  5  6  7  8  9  10  11  12  23  26  30  31 0
 6-311+G(2d,p)
 ****
 33  35  36  37  38 0
 6-311+G(2d,p)
 ****
 1  2  13  14  15  16  17  18  19  20  21  22  24  25 0
 3-21G
 ****
 27  28  29  32  34  39  40  41  42  43  44  45  46  47  48  49 0
 3-21G
 ****


