%nproc=1
%NoSave
%Mem=1900MB
#P OB98/GEN NMR

erre ene a

0 1
  C       21.614       7.817     -13.064
  O       20.372       7.755     -12.392
  H       21.440       7.705     -14.137
  H       22.265       7.006     -12.727
  H       22.097       8.782     -12.883
  P       20.404       7.942     -10.799
  C       20.247       5.400     -10.275
  O       21.024       6.589     -10.200
  C       20.750       4.389      -9.248
  O       19.795       3.311      -9.127
  C       22.072       3.726      -9.618
  O       23.181       4.562      -9.339
  C       22.025       2.472      -8.756
  O       22.467       2.734      -7.418
  C       20.531       2.124      -8.755
  N       18.860      -2.681      -9.050
  C       19.003      -1.837      -8.005
  N       19.439      -0.559      -8.014
  C       19.735      -0.171      -9.266
  C       19.648      -0.922     -10.425
  C       19.182      -2.239     -10.287
  N       19.071      -3.110     -11.345
  N       20.086      -0.189     -11.510
  C       20.422       0.985     -11.016
  N       20.222       1.042      -9.667
  O       18.855       7.858     -10.400
  O       21.039       9.203     -10.319
  H       22.251       1.940      -6.892
  H       18.482       8.758     -10.345
  H       18.734      -2.242      -7.033
  H       20.820       1.814     -11.589
  H       20.177       1.823      -7.762
  H       22.666       1.688      -9.161
  H       22.065       3.431     -10.674
  H       20.824       4.889      -8.274
  H       20.338       4.970     -11.278
  H       19.198       5.650     -10.088
  H       18.751      -4.049     -11.168
  H       19.409      -2.824     -12.254
  P       24.299       4.751     -10.468
  C       25.761       2.854      -9.458
  O       25.096       3.365     -10.601
  O       25.357       5.732      -9.777
  O       23.793       5.298     -11.761
  H       25.228       6.647     -10.089
  H       26.241       1.931      -9.708
  H       25.049       2.686      -8.677
  H       26.494       3.560      -9.127

 6  7  8  9  10  11  12  13  14  15  25  28  32  33  34  35 0
 6-311+G(2d,p)
 ****
 36  37  40 0
 6-311+G(2d,p)
 ****
 1  2  3  4  5  16  17  18  19  20  21  22  23  24 0
 3-21G
 ****
 26  27  29  30  31  38  39 41  42  43  44  45  46  47  48 0
 3-21G
 ****


