%nproc=1
%NoSave
%Mem=1900MB
#P OB98/GEN NMR

erre ene a

0 1
  C      274.780      21.529    -149.291
  O      273.829      22.071    -150.187
  H      275.710      22.098    -149.379
  H      274.981      20.484    -149.547
  H      274.418      21.599    -148.261
  P      272.339      21.493    -150.097
  C      272.621      19.941    -152.197
  O      272.343      20.050    -150.807
  C      272.904      18.484    -152.561
  O      274.133      18.026    -151.964
  C      271.863      17.508    -152.043
  O      270.636      17.600    -152.727
  C      272.593      16.189    -152.254
  O      272.525      15.775    -153.626
  C      274.042      16.579    -151.870
  N      274.420      16.098    -150.549
  C      274.761      14.741    -150.470
  O      274.742      14.037    -151.479
  N      275.086      14.214    -149.243
  C      275.094      14.977    -148.195
  N      275.416      14.395    -147.009
  C      274.765      16.416    -148.238
  C      274.436      16.902    -149.433
  O      271.548      22.402    -151.149
  O      271.744      21.472    -148.726
  H      272.836      16.534    -154.155
  H      271.954      22.419    -152.032
  H      274.796      17.016    -147.338
  H      274.182      17.948    -149.552
  H      274.755      16.170    -152.597
  H      272.164      15.382    -151.655
  H      271.720      17.643    -150.960
  H      273.009      18.420    -153.652
  H      275.613      13.400    -147.015
  H      273.465      20.581    -152.478
  H      275.422      14.880    -146.124
  H      271.740      20.300    -152.740
  P      269.246      17.547    -151.927
  C      268.961      15.011    -152.271
  O      269.131      16.063    -151.324
  O      268.053      17.997    -152.698
  O      269.544      18.421    -150.617
  H      270.270      18.087    -150.060
  H      268.897      14.075    -151.757
  H      269.796      14.994    -152.939
  H      268.062      15.174    -152.828

 6  7  8  9  10  11  12  13  14  15  16  26  30  31  32  33  35 0
 6-311+G(2d,p)
 ****
 37  38 0
 6-311+G(2d,p)
 ****
 1  2  3  4  5  17  18  19  20  21  22  23  24  25 0
 3-21G
 ****
 27  28  29  34  36  39  40  41  42  43  44  45  46 0
 3-21G
 ****


