%nproc=1
%NoSave
%Mem=1900MB
#P OB98/GEN NMR

erre ene a

0 1
  C      786.357      75.716     -83.115
  O      786.448      76.801     -84.021
  H      786.976      75.908     -82.235
  H      785.316      75.606     -82.803
  H      786.681      74.793     -83.605
  P      787.912      77.160     -84.573
  C      788.537      79.669     -84.798
  O      787.792      78.576     -85.328
  C      787.905      80.991     -85.240
  O      788.068      81.119     -86.678
  C      786.411      81.128     -84.911
  O      786.186      82.287     -84.101
  C      785.745      81.352     -86.263
  O      784.705      82.330     -86.221
  C      786.900      81.795     -87.155
  N      785.015      83.588     -91.539
  C      785.495      84.224     -90.445
  N      786.077      83.696     -89.355
  C      786.178      82.353     -89.477
  C      785.767      81.573     -90.540
  C      785.132      82.245     -91.606
  N      784.596      81.592     -92.693
  N      786.020      80.236     -90.298
  C      786.553      80.211     -89.086
  N      786.643      81.464     -88.541
  O      788.116      76.118     -85.774
  O      789.008      77.071     -83.569
  H      785.076      83.117     -85.776
  H      788.994      75.695     -85.691
  H      785.380      85.307     -90.445
  H      786.842      79.313     -88.544
  H      787.079      82.880     -87.090
  H      785.318      80.400     -86.608
  H      786.004      80.240     -84.414
  H      788.473      81.814     -84.780
  H      789.567      79.625     -85.175
  H      784.070      82.134     -93.349
  H      784.590      80.580     -92.691
  H      788.561      79.593     -83.710
  P      786.541      82.145     -82.533
  C      784.387      82.783     -81.214
  O      785.638      83.212     -81.739
  O      788.014      82.763     -82.441
  O      786.490      80.740     -82.022
  H      788.493      82.374     -81.683
  H      783.909      83.601     -80.717
  H      784.547      81.987     -80.517
  H      783.764      82.438     -82.013

 6  7  8  9  10  11  12  13  14  15  25  28  32  33  34  35 0
 6-311+G(2d,p)
 ****
 36  39  40 0
 6-311+G(2d,p)
 ****
 1  2  3  4  5  16  17  18  19  20  21  22  23  24 0
 3-21G
 ****
 26  27  29  30  31  37  38  41  42  43  44  45  46  47  48 0
 3-21G
 ****


