%nproc=1
%NoSave
%Mem=1900MB
#P OB98/GEN NMR

erre ene a

0 1
  C       94.789       9.240     -49.907
  O       93.724      10.173     -49.898
  P       93.831      11.529     -50.742
  C       95.236      13.683     -50.738
  O       94.987      12.435     -50.097
  C       95.719      14.717     -49.723
  O       94.687      15.009     -48.755
  C       96.916      14.266     -48.899
  O       98.112      14.262     -49.655
  C       96.878      15.272     -47.754
  O       97.473      16.517     -48.150
  C       95.357      15.445     -47.546
  N       94.871      14.726     -46.378
  C       95.181      15.289     -45.135
  O       95.894      16.290     -45.064
  N       94.674      14.696     -44.004
  C       94.029      13.575     -44.098
  N       93.500      13.066     -42.950
  C       93.824      12.866     -45.378
  C       94.246      13.504     -46.469
  O       92.537      12.237     -50.976
  O       94.483      11.070     -52.133
  H       93.945      11.426     -52.867
  H       97.135      16.713     -49.046
  H       93.339      11.900     -45.393
  H       94.117      13.067     -47.455
  H       95.110      16.509     -47.435
  H       97.419      14.919     -46.872
  H       96.731      13.259     -48.505
  H       95.954      15.642     -50.267
  H       93.646      13.589     -42.095
  H       94.309      14.029     -51.202
  H       92.731      12.402     -42.953
  H       95.983      13.538     -51.527
  P       99.164      13.094     -49.341
  C      100.427      12.244     -47.246
  O       99.623      13.258     -47.816
  O      100.463      13.534     -50.176
  O       98.711      11.725     -49.728
  H      100.907      12.743     -50.533
  H      100.927      12.650     -46.362
  H      101.185      11.890     -47.951
  H       99.795      11.406     -46.938
  H       94.536       8.404     -49.289
  H       95.675       9.706     -49.530
  H       94.961       8.905     -50.908

 3  4  5  6  7  8  9  10  11  12  13  24  27  28  29  30  32 0
 6-311+G(2d,p)
 ****
 34  35 0
 6-311+G(2d,p)
 ****
 1  2  14  15  16  17  18  19  20  21  22  23  25  26 0
 3-21G
 ****
 31  33  36  37  38  39  40  41  42  43  44  45  46 0
 3-21G
 ****


