%nproc=1
%NoSave
%Mem=1900MB
#P OB98/GEN NMR

erre ene a

0 1
  C       56.967    -175.687    -527.712
  O       57.184    -174.512    -528.467
  H       57.481    -176.519    -528.204
  H       55.899    -175.913    -527.662
  H       57.372    -175.572    -526.703
  P       56.488    -173.174    -527.917
  C       57.999    -171.282    -528.846
  O       57.665    -172.099    -527.734
  C       59.495    -170.969    -528.852
  O       60.272    -172.189    -528.899
  C       59.953    -170.112    -530.024
  O       59.726    -168.737    -529.775
  C       61.438    -170.456    -530.079
  O       62.192    -169.715    -529.100
  C       61.430    -171.957    -529.746
  N       63.667    -173.061    -534.135
  C       64.025    -172.153    -533.158
  N       65.108    -171.389    -533.413
  N       63.371    -171.999    -532.035
  C       62.287    -172.808    -531.931
  C       61.844    -173.759    -532.825
  C       62.595    -173.938    -534.049
  O       62.369    -174.768    -534.923
  N       60.718    -174.390    -532.357
  C       60.466    -173.800    -531.204
  N       61.377    -172.819    -530.913
  O       56.095    -173.547    -526.409
  O       55.303    -172.705    -528.690
  H       63.125    -169.967    -529.159
  H       55.295    -173.052    -526.157
  H       64.222    -173.146    -534.971
  H       59.638    -174.043    -530.553
  H       62.317    -172.256    -529.171
  H       61.869    -170.218    -531.054
  H       65.430    -171.228    -534.356
  H       59.468    -170.433    -530.957
  H       65.362    -170.708    -532.711
  H       59.728    -170.474    -527.900
  H       57.438    -170.346    -528.785
  H       57.723    -171.804    -529.772
  P       58.582    -168.004    -530.635
  C       57.513    -166.557    -528.759
  O       57.388    -167.681    -529.620
  O       57.986    -169.183    -531.541
  O       59.063    -166.853    -531.457
  H       57.484    -168.810    -532.289
  H       56.639    -166.478    -528.147
  H       57.620    -165.669    -529.346
  H       58.374    -166.679    -528.136

 6  7  8  9  10  11  12  13  14  15  26  29  33  34 0
 6-311+G(2d,p)
 ****
 36  38  39  40  41 0
 6-311+G(2d,p)
 ****
 1  2  3  4  5  16  17  18  19  20  21  22  23  24  25 0
 3-21G
 ****
 27  28  30  31  32  35  37  42  43  44  45  46  47 0
 3-21G
 ****
 48  49 0
 3-21G
 ****


