%nproc=1
%NoSave
%Mem=1900MB
#P OB98/GEN NMR

erre ene a

0 1
  C     -495.321    -541.589    -275.523
  O     -495.567    -541.231    -274.180
  H     -494.872    -540.732    -276.038
  H     -496.257    -541.854    -276.026
  H     -494.625    -542.429    -275.566
  P     -496.276    -542.335    -273.260
  C     -494.655    -542.148    -271.265
  O     -495.961    -541.865    -271.754
  C     -493.731    -540.952    -271.497
  O     -494.198    -539.838    -270.688
  C     -492.270    -541.220    -271.121
  O     -491.417    -540.533    -272.040
  C     -492.149    -540.586    -269.751
  O     -490.797    -540.250    -269.424
  C     -493.090    -539.390    -269.890
  N     -493.575    -535.247    -266.971
  C     -493.249    -535.402    -268.274
  N     -493.164    -536.551    -268.982
  C     -493.519    -537.601    -268.217
  C     -493.879    -537.599    -266.882
  C     -493.884    -536.345    -266.238
  N     -494.185    -536.173    -264.910
  N     -494.121    -538.882    -266.446
  C     -493.927    -539.653    -267.505
  N     -493.544    -538.919    -268.591
  O     -495.928    -543.753    -273.569
  O     -497.825    -541.960    -273.422
  H     -490.754    -540.033    -268.469
  H     -497.968    -540.999    -273.325
  H     -493.016    -534.492    -268.810
  H     -494.037    -540.733    -267.528
  H     -492.612    -538.541    -270.399
  H     -492.512    -541.277    -268.979
  H     -492.022    -542.279    -271.110
  H     -493.820    -540.642    -272.552
  H     -494.247    -543.036    -271.759
  H     -494.173    -535.240    -264.537
  H     -494.427    -536.982    -264.355
  H     -494.740    -542.361    -270.193
  P     -491.278    -541.086    -273.535
  C     -492.558    -539.228    -274.785
  O     -491.295    -539.830    -274.551
  O     -492.191    -542.204    -273.902
  O     -489.741    -541.547    -273.597
  H     -489.682    -542.403    -274.083
  H     -492.444    -538.413    -275.469
  H     -492.956    -538.864    -273.861
  H     -493.227    -539.952    -275.201

 6  7  8  9  10  11  12  13  14  15  25  28  32  33  34  35 0
 6-311+G(2d,p)
 ****
 36  39  40 0
 6-311+G(2d,p)
 ****
 1  2  3  4  5  16  17  18  19  20  21  22  23  24 0
 3-21G
 ****
 26  27  29  30  31  37  38  41  42  43  44  45  46  47 0
 3-21G
 ****
 48 0
 3-21G
 ****


