%nproc=1
%NoSave
%Mem=1900MB
#P OB98/GEN NMR

erre ene a

0 1
  C     -269.697     170.237      49.404
  O     -270.997     170.351      48.850
  P     -271.358     171.705      48.075
  C     -272.829     173.801      48.572
  O     -272.331     172.546      49.035
  C     -274.246     174.044      49.104
  O     -275.154     173.080      48.493
  C     -274.396     173.919      50.631
  O     -275.388     174.886      51.028
  C     -274.921     172.500      50.773
  O     -275.505     172.238      52.039
  C     -275.863     172.434      49.582
  N     -278.775     168.393      50.782
  C     -278.709     169.645      51.302
  N     -277.913     170.668      50.922
  C     -277.136     170.300      49.883
  C     -277.087     169.071      49.265
  C     -277.954     168.071      49.748
  N     -278.022     166.804      49.231
  N     -276.134     169.069      48.256
  C     -275.632     170.276      48.272
  N     -276.219     171.076      49.220
  O     -272.360     171.209      46.921
  O     -270.187     172.454      47.515
  H     -276.240     172.859      52.207
  H     -272.191     171.691      46.084
  H     -279.384     169.851      52.145
  H     -274.843     170.643      47.618
  H     -276.799     172.999      49.746
  H     -274.093     171.805      50.669
  H     -273.453     174.112      51.167
  H     -274.562     175.035      48.765
  H     -272.862     173.787      47.488
  H     -278.529     166.112      49.773
  H     -277.263     166.525      48.609
  H     -272.138     174.595      48.886
  P     -275.325     175.485      52.528
  C     -276.529     174.279      54.450
  O     -275.526     174.192      53.460
  O     -276.750     176.184      52.622
  O     -274.148     176.367      52.831
  H     -277.470     175.592      52.353
  H     -276.638     173.303      54.939
  H     -277.496     174.549      54.000
  H     -276.249     175.028      55.204
  H     -269.598     169.288      49.888
  H     -269.544     171.019      50.118
  H     -268.969     170.318      48.624

 3  4  5  6  7  8  9  10  11  12  22  25  29  30  31  32 0
 6-311+G(2d,p)
 ****
 33  36  37 0
 6-311+G(2d,p)
 ****
 1  2  13  14  15  16  17  18  19  20  21  23  24  26 0
 3-21G
 ****
 27  28  34  35  38  39  40  41  42  43  44  45  46  47  48 0
 3-21G
 ****


