%nproc=1
%NoSave
%Mem=1900MB
#P OB98/GEN NMR

erre ene a

0 1
  C       20.343       6.749     187.085
  O       21.749       6.749     187.223
  H       20.058       5.929     186.421
  H       20.008       7.689     186.639
  H       19.857       6.600     188.053
  P       22.426       7.772     188.254
  C       22.196       8.218     190.783
  O       21.580       7.690     189.614
  C       21.129       8.700     191.763
  O       20.474       9.882     191.250
  C       20.017       7.685     192.011
  O       20.464       6.649     192.865
  C       18.942       8.589     192.594
  O       19.199       8.873     193.977
  C       19.113       9.866     191.736
  N       18.157       9.940     190.631
  C       17.223      10.971     190.695
  O       17.179      11.784     191.616
  N       16.307      11.009     189.676
  C       16.181      10.084     188.678
  O       15.218      10.035     187.922
  C       17.240       9.064     188.620
  C       18.154       9.031     189.592
  O       22.660       9.153     187.737
  O       23.803       7.053     188.649
  H       24.536       7.462     188.147
  H       18.368       9.234     194.346
  H       15.595      11.725     189.740
  H       17.213       8.349     187.805
  H       18.926       8.267     189.585
  H       18.988      10.762     192.358
  H       17.947       8.141     192.538
  H       19.658       7.277     191.059
  H       21.626       8.971     192.706
  H       22.830       9.063     190.492
  H       22.823       7.444     191.240
  P       19.631       5.290     193.024
  C       18.752       3.452     191.473
  O       19.207       4.794     191.559
  O       18.510       5.346     194.009
  O       20.728       4.206     193.468
  H       20.422       3.762     194.283
  H       18.497       3.226     190.459
  H       17.890       3.327     192.094
  H       19.527       2.791     191.802

 6  7  8  9  10  11  12  13  14  15  16  27  31  32  33  34  35 0
 6-311+G(2d,p)
 ****
 36  37 0
 6-311+G(2d,p)
 ****
 1  2  3  4  5  17  18  19  20  21  22  23  24  25 0
 3-21G
 ****
 26  28  29  30  38  39  40  41  42  43  44  45 0
 3-21G
 ****


