%nproc=1
%NoSave
%Mem=1900MB
#P OB98/GEN NMR

erre ene a

0 1
  C      -29.203    -239.461     -84.325
  O      -29.388    -238.850     -85.586
  H      -28.482    -238.873     -83.752
  H      -28.812    -240.475     -84.450
  H      -30.150    -239.492     -83.778
  P      -30.374    -239.605     -86.603
  C      -30.135    -241.550     -88.301
  O      -29.492    -240.730     -87.335
  C      -29.260    -242.751     -88.649
  O      -28.748    -243.374     -87.451
  C      -29.974    -243.840     -89.441
  O      -29.987    -243.534     -90.825
  C      -29.116    -245.054     -89.115
  O      -27.918    -245.072     -89.920
  C      -28.773    -244.815     -87.637
  N      -29.631    -248.868     -84.748
  C      -28.620    -248.616     -85.653
  N      -27.716    -249.603     -85.841
  N      -28.508    -247.503     -86.329
  C      -29.516    -246.629     -86.086
  C      -30.572    -246.761     -85.216
  C      -30.650    -247.976     -84.434
  O      -31.475    -248.224     -83.558
  N      -31.373    -245.648     -85.235
  C      -30.820    -244.863     -86.140
  N      -29.693    -245.417     -86.689
  O      -30.619    -238.522     -87.758
  O      -31.664    -240.070     -86.020
  H      -27.490    -244.199     -89.871
  H      -31.548    -238.584     -88.054
  H      -29.649    -249.730     -84.235
  H      -31.190    -243.887     -86.424
  H      -27.776    -245.192     -87.384
  H      -29.641    -245.986     -89.325
  H      -27.906    -250.560     -85.584
  H      -30.990    -244.002     -89.062
  H      -27.019    -249.445     -86.559
  H      -28.393    -242.374     -89.208
  H      -30.316    -240.957     -89.203
  H      -31.093    -241.895     -87.900
  P      -31.123    -244.202     -91.737
  C      -31.418    -246.540     -92.829
  O      -30.873    -245.789     -91.754
  O      -30.709    -243.742     -93.216
  O      -32.513    -243.776     -91.415
  H      -31.312    -243.040     -93.523
  H      -31.170    -247.573     -92.704
  H      -31.012    -246.186     -93.753
  H      -32.482    -246.427     -92.840

 6  7  8  9  10  11  12  13  14  15  26  29  33  34 0
 6-311+G(2d,p)
 ****
 36  38  39  40  41 0
 6-311+G(2d,p)
 ****
 1  2  3  4  5  16  17  18  19  20  21  22  23  24  25 0
 3-21G
 ****
 27  28  30  31  32  35  37  42  43  44  45  46  47 0
 3-21G
 ****
 48  49 0
 3-21G
 ****


