%nproc=1
%NoSave
%Mem=1900MB
#P OB98/GEN NMR

erre ene a

0 1
  C     -138.603    -214.190     -24.043
  O     -138.024    -214.250     -25.331
  H     -139.401    -213.442     -24.054
  H     -137.859    -213.897     -23.300
  H     -139.038    -215.158     -23.775
  P     -136.779    -215.229     -25.569
  C     -134.339    -215.322     -24.730
  O     -135.497    -214.514     -24.916
  C     -133.212    -214.492     -24.105
  O     -132.846    -213.460     -25.052
  C     -133.639    -213.814     -22.794
  O     -132.753    -214.083     -21.708
  C     -133.836    -212.358     -23.201
  O     -133.665    -211.425     -22.155
  C     -132.859    -212.191     -24.371
  N     -133.218    -211.116     -25.292
  C     -132.846    -209.822     -24.937
  O     -132.221    -209.517     -23.925
  N     -133.218    -208.838     -25.819
  C     -133.910    -209.015     -26.979
  O     -134.209    -208.096     -27.731
  C     -134.293    -210.402     -27.288
  C     -133.936    -211.373     -26.443
  O     -136.584    -215.698     -26.972
  O     -137.052    -216.453     -24.574
  H     -132.838    -211.652     -21.685
  H     -137.395    -217.213     -25.079
  H     -132.946    -207.897     -25.576
  H     -134.852    -210.578     -28.196
  H     -134.200    -212.408     -26.642
  H     -131.852    -211.993     -24.005
  H     -134.862    -212.241     -23.571
  H     -134.596    -214.215     -22.440
  H     -132.337    -215.136     -23.962
  H     -134.032    -215.704     -25.707
  H     -134.583    -216.168     -24.077
  P     -133.034    -215.139     -20.547
  C     -134.862    -215.449     -18.690
  O     -134.298    -214.632     -19.706
  O     -131.838    -215.577     -19.770
  O     -133.596    -216.426     -21.342
  H     -133.303    -217.213     -20.841
  H     -135.692    -214.942     -18.244
  H     -134.123    -215.649     -17.942
  H     -135.195    -216.371     -19.118

 6  7  8  9  10  11  12  13  14  15  16  26  31  32  33  34  35 0
 6-311+G(2d,p)
 ****
 36  37 0
 6-311+G(2d,p)
 ****
 1  2  3  4  5  17  18  19  20  21  22  23  24  25 0
 3-21G
 ****
 27  28  29  30  38  39  40  41  42  43  44  45 0
 3-21G
 ****


