%nproc=1
%NoSave
%Mem=1900MB
#P OB98/GEN NMR

erre ene a

0 1
  C     -422.187     707.460     319.683
  O     -421.972     706.139     319.232
  H     -423.264     707.641     319.724
  H     -421.740     708.174     318.986
  H     -421.768     707.597     320.686
  P     -420.466     705.603     319.037
  C     -419.536     703.438     320.056
  O     -420.550     704.006     319.242
  C     -420.127     702.458     321.067
  O     -420.739     703.206     322.158
  C     -421.205     701.534     320.486
  O     -420.964     700.180     320.888
  C     -422.499     702.026     321.115
  O     -423.513     701.036     321.171
  C     -421.975     702.526     322.472
  N     -422.937     703.401     323.149
  C     -424.049     702.764     323.725
  O     -424.171     701.537     323.635
  N     -425.008     703.532     324.309
  C     -424.908     704.828     324.289
  N     -425.913     705.538     324.864
  C     -423.759     705.536     323.676
  C     -422.822     704.773     323.133
  O     -419.447     706.295     319.881
  O     -420.184     705.750     317.467
  H     -423.222     700.329     321.778
  H     -419.209     705.785     317.318
  H     -423.721     706.617     323.681
  H     -421.952     705.196     322.657
  H     -421.743     701.682     323.140
  H     -422.878     702.881     320.535
  H     -421.256     701.571     319.389
  H     -419.304     701.881     321.520
  H     -426.679     705.013     325.273
  H     -419.000     704.255     320.571
  H     -425.952     706.544     324.892
  H     -418.826     702.905     319.408
  P     -420.979     699.074     319.716
  C     -420.580     696.509     319.571
  O     -420.862     697.626     320.404
  O     -419.569     699.275     318.993
  O     -422.113     699.237     318.764
  H     -419.710     699.666     318.108
  H     -420.533     695.622     320.168
  H     -419.641     696.658     319.080
  H     -421.353     696.406     318.839

 6  7  8  9  10  11  12  13  14  15  16  26  30  31  32  33  35 0
 6-311+G(2d,p)
 ****
 37  38 0
 6-311+G(2d,p)
 ****
 1  2  3  4  5  17  18  19  20  21  22  23  24  25 0
 3-21G
 ****
 27  28  29  34  36  39  40  41  42  43  44  45  46 0
 3-21G
 ****


