%nproc=1
%NoSave
%Mem=1900MB
#P OB98/GEN NMR

erre ene a

0 1
  C      -92.239      81.935      -1.251
  O      -92.116      81.411       0.086
  P      -93.396      81.459       1.061
  C      -92.411      82.652       3.166
  O      -93.295      82.716       2.053
  C      -92.952      83.472       4.356
  O      -92.085      83.285       5.520
  C      -93.041      84.980       4.095
  O      -94.172      85.468       4.841
  C      -91.748      85.501       4.703
  O      -91.779      86.885       4.995
  C      -91.654      84.597       5.944
  N      -90.316      84.537       6.539
  C      -89.999      85.470       7.525
  O      -90.745      86.379       7.887
  N      -88.754      85.344       8.084
  C      -87.799      84.428       7.737
  O      -86.689      84.389       8.257
  C      -88.180      83.490       6.674
  C      -89.395      83.586       6.130
  O      -93.108      80.224       2.039
  O      -94.719      81.292       0.388
  H      -91.768      87.369       4.146
  H      -93.924      79.695       2.149
  H      -88.514      85.998       8.814
  H      -87.454      82.747       6.371
  H      -89.703      82.893       5.353
  H      -92.371      84.943       6.703
  H      -90.921      85.323       4.004
  H      -93.148      85.227       3.031
  H      -93.934      83.065       4.629
  H      -91.432      83.045       2.872
  H      -92.286      81.600       3.460
  P      -95.527      85.790       4.045
  C      -94.438      87.521       2.415
  O      -95.121      86.294       2.581
  O      -95.985      87.136       4.792
  O      -96.561      84.703       4.115
  H      -95.251      87.763       4.908
  H      -93.668      87.655       3.184
  H      -95.150      88.348       2.462
  H      -93.950      87.526       1.434
  H      -91.306      81.828      -1.763
  H      -92.504      82.971      -1.205
  H      -92.999      81.395      -1.777

 3  4  5  6  7  8  9  10  11  12  13  23  28  29  30  31  32 0
 6-311+G(2d,p)
 ****
 33  34 0
 6-311+G(2d,p)
 ****
 1  2  14  15  16  17  18  19  20  21  22  24  25  26 0
 3-21G
 ****
 27  35  36  37  38  39  40  41  42  43  44  45 0
 3-21G
 ****


