%nproc=1
%NoSave
%Mem=1900MB
#P OB98/GEN NMR

erre ene a

0 1
  C      613.423     139.190     564.312
  O      612.767     137.966     564.580
  H      614.287     139.283     564.976
  H      612.735     140.018     564.507
  H      613.770     139.229     563.272
  P      611.727     137.431     563.483
  C      613.955     136.565     562.458
  O      612.597     136.932     562.226
  C      614.516     135.821     561.248
  O      613.738     134.594     561.054
  C      614.468     136.619     559.931
  O      615.646     136.314     559.168
  C      613.267     136.026     559.225
  O      613.323     136.209     557.813
  C      613.369     134.568     559.663
  N      610.853     131.835     556.285
  C      612.168     132.256     556.301
  N      612.920     131.941     555.218
  N      612.700     132.922     557.282
  C      611.842     133.143     558.316
  C      610.512     132.788     558.416
  C      609.932     132.071     557.308
  O      608.762     131.690     557.225
  N      609.971     133.257     559.594
  C      610.962     133.904     560.176
  N      612.118     133.864     559.444
  O      611.048     138.784     562.958
  O      610.716     136.462     563.984
  H      613.089     137.140     557.612
  H      610.216     138.947     563.443
  H      610.481     131.345     555.481
  H      610.894     134.433     561.121
  H      614.140     134.016     559.110
  H      612.338     136.488     559.600
  H      612.595     131.419     554.425
  H      614.391     137.704     560.078
  H      613.907     132.214     555.243
  H      615.542     135.511     561.475
  H      613.996     135.915     563.339
  H      614.536     137.469     562.657
  P      616.558     137.534     558.674
  C      618.760     137.164     560.024
  O      617.567     137.918     559.871
  O      615.542     138.771     558.650
  O      617.202     137.319     557.346
  H      615.776     139.379     557.921
  H      619.316     137.541     560.857
  H      619.350     137.245     559.135
  H      618.513     136.137     560.196

 6  7  8  9  10  11  12  13  14  15  26  29  33  34 0
 6-311+G(2d,p)
 ****
 36  38  39  40  41 0
 6-311+G(2d,p)
 ****
 1  2  3  4  5  16  17  18  19  20  21  22  23  24  25 0
 3-21G
 ****
 27  28  30  31  32  35  37  42  43  44  45  46  47 0
 3-21G
 ****
 48  49 0
 3-21G
 ****


