%nproc=1
%NoSave
%Mem=1900MB
#P OB98/GEN NMR

erre ene a

0 1
  C      -57.931    -190.381    -193.192
  O      -57.440    -190.858    -191.951
  P      -58.153    -190.326    -190.612
  C      -59.803    -192.332    -190.494
  O      -59.643    -190.924    -190.606
  C      -60.504    -192.699    -189.184
  O      -61.855    -192.158    -189.207
  C      -60.616    -194.209    -188.923
  O      -60.502    -194.396    -187.508
  C      -62.026    -194.510    -189.404
  O      -62.546    -195.743    -188.938
  C      -62.751    -193.256    -188.921
  N      -67.560    -194.957    -189.295
  C      -66.534    -195.327    -188.496
  N      -65.283    -194.823    -188.448
  C      -65.140    -193.824    -189.337
  C      -66.086    -193.349    -190.229
  C      -67.353    -193.961    -190.188
  N      -68.396    -193.586    -191.011
  N      -65.568    -192.333    -191.004
  C      -64.325    -192.198    -190.588
  N      -64.027    -193.061    -189.571
  O      -58.380    -188.774    -190.918
  O      -57.374    -190.541    -189.352
  H      -62.627    -195.725    -187.965
  H      -58.227    -188.231    -190.122
  H      -66.745    -196.136    -187.804
  H      -63.599    -191.504    -190.998
  H      -62.925    -193.275    -187.838
  H      -62.025    -194.557    -190.499
  H      -59.840    -194.796    -189.425
  H      -59.971    -192.210    -188.358
  H      -58.816    -192.809    -190.503
  H      -69.187    -194.210    -191.043
  H      -68.168    -192.995    -191.802
  H      -60.362    -192.704    -191.359
  P      -59.926    -195.786    -186.950
  C      -57.823    -194.779    -185.870
  O      -58.333    -195.565    -186.928
  O      -60.104    -196.725    -188.236
  O      -60.563    -196.305    -185.709
  H      -59.727    -196.313    -189.035
  H      -56.730    -194.791    -185.921
  H      -58.139    -195.186    -184.906
  H      -58.168    -193.746    -185.971
  H      -57.366    -190.816    -193.990
  H      -57.836    -189.316    -193.227
  H      -58.961    -190.651    -193.296

 3  4  5  6  7  8  9  10  11  12  22  25  29  30  31  32 0
 6-311+G(2d,p)
 ****
 33  36  37 0
 6-311+G(2d,p)
 ****
 1  2  13  14  15  16  17  18  19  20  21  23  24  26 0
 3-21G
 ****
 27  28  34  35  38  39  40  41  42  43  44  45  46  47  48 0
 3-21G
 ****


