%nproc=1
%NoSave
%Mem=1900MB
#P OB98/GEN NMR

erre ene a

0 1
  C     -344.030    -271.663     604.486
  O     -343.040    -272.287     605.287
  H     -343.915    -270.579     604.573
  H     -345.027    -271.938     604.839
  H     -343.909    -271.950     603.439
  P     -343.026    -273.892     605.285
  C     -342.892    -274.074     607.876
  O     -342.265    -274.339     606.626
  C     -342.493    -275.141     608.888
  O     -343.023    -276.422     608.471
  C     -340.994    -275.349     609.015
  O     -340.371    -274.351     609.809
  C     -340.936    -276.742     609.637
  O     -341.105    -276.689     611.059
  C     -342.132    -277.441     608.976
  N     -340.378    -282.109     607.856
  C     -340.781    -281.553     609.015
  N     -341.247    -280.301     609.234
  C     -341.307    -279.616     608.072
  C     -340.933    -280.050     606.816
  C     -340.449    -281.371     606.721
  N     -340.014    -281.937     605.544
  N     -341.094    -279.040     605.881
  C     -341.569    -278.023     606.560
  N     -341.718    -278.321     607.893
  O     -341.984    -274.244     604.120
  O     -344.353    -274.540     605.056
  H     -341.994    -276.324     611.213
  H     -342.468    -274.474     603.308
  H     -340.709    -282.189     609.896
  H     -341.811    -277.054     606.152
  H     -342.696    -278.054     609.688
  H     -339.978    -277.217     609.429
  H     -340.527    -275.387     608.017
  H     -342.937    -274.889     609.866
  H     -343.981    -274.072     607.753
  H     -342.577    -273.080     608.224
  H     -339.621    -282.856     605.566
  H     -339.966    -281.351     604.715
  P     -339.423    -273.291     609.077
  C     -337.783    -273.079     611.099
  O     -338.703    -272.437     610.225
  O     -340.445    -272.250     608.413
  O     -338.502    -273.881     608.069
  H     -340.095    -271.939     607.556
  H     -337.399    -272.366     611.799
  H     -336.976    -273.489     610.529
  H     -338.282    -273.865     611.627

 6  7  8  9  10  11  12  13  14  15  25  28  32  33  34  35 0
 6-311+G(2d,p)
 ****
 36  37  40 0
 6-311+G(2d,p)
 ****
 1  2  3  4  5  16  17  18  19  20  21  22  23  24 0
 3-21G
 ****
 26  27  29  30  31  38  39 41  42  43  44  45  46  47  48 0
 3-21G
 ****


