%nproc=1
%NoSave
%Mem=1900MB
#P OB98/GEN NMR

erre ene a

0 1
  C      -22.830      -2.530      30.479
  O      -21.402      -2.487      30.556
  P      -20.598      -2.484      29.167
  C      -19.766      -0.047      29.435
  O      -19.408      -1.411      29.275
  C      -18.608       0.770      30.020
  O      -18.263       0.298      31.354
  C      -17.327       0.708      29.183
  O      -16.665       1.974      29.304
  C      -16.502      -0.343      29.898
  O      -15.120      -0.243      29.563
  C      -16.858      -0.029      31.349
  N      -14.509      -1.431      35.658
  C      -14.603      -0.243      35.025
  N      -15.231       0.044      33.864
  C      -15.841      -1.051      33.378
  C      -15.826      -2.331      33.905
  C      -15.116      -2.508      35.104
  N      -14.996      -3.723      35.736
  N      -16.527      -3.199      33.091
  C      -16.952      -2.454      32.091
  N      -16.589      -1.145      32.235
  O      -21.630      -1.803      28.150
  O      -20.192      -3.843      28.702
  H      -14.647      -0.987      29.992
  H      -21.987      -2.474      27.540
  H      -14.103       0.590      35.513
  H      -17.515      -2.810      31.242
  H      -16.303       0.833      31.739
  H      -16.851      -1.345      29.617
  H      -17.483       0.471      28.126
  H      -18.934       1.812      30.116
  H      -20.632       0.038      30.097
  H      -14.445      -3.771      36.577
  H      -15.405      -4.541      35.309
  H      -20.087       0.355      28.469
  P      -16.401       2.776      27.943
  C      -18.488       4.292      27.674
  O      -17.145       4.185      28.102
  O      -17.291       1.996      26.865
  O      -14.964       2.842      27.542
  H      -16.921       2.118      25.972
  H      -19.041       4.900      28.396
  H      -18.975       3.317      27.589
  H      -18.513       4.788      26.700
  H      -23.241      -2.527      31.467
  H      -23.133      -3.421      29.969
  H      -23.184      -1.674      29.943

 3  4  5  6  7  8  9  10  11  12  22  25  29  30  31  32 0
 6-311+G(2d,p)
 ****
 33  36  37 0
 6-311+G(2d,p)
 ****
 1  2  13  14  15  16  17  18  19  20  21  23  24  26 0
 3-21G
 ****
 27  28  34  35  38  39  40  41  42  43  44  45  46  47  48 0
 3-21G
 ****


