%nproc=1
%NoSave
%Mem=1900MB
#P OB98/GEN NMR

erre ene a

0 1
  C      497.113     580.260    -763.680
  O      495.704     580.385    -763.689
  H      497.538     581.076    -763.087
  H      497.499     580.330    -764.698
  H      497.414     579.309    -763.233
  P      494.878     579.169    -764.336
  C      492.565     578.103    -763.859
  O      493.410     579.228    -763.690
  C      491.218     578.343    -763.183
  O      491.390     578.503    -761.756
  C      490.492     579.601    -763.663
  O      489.768     579.359    -764.869
  C      489.541     579.836    -762.497
  O      488.432     578.917    -762.574
  C      490.425     579.496    -761.297
  N      490.565     582.922    -757.557
  C      489.661     581.909    -757.794
  N      488.645     581.784    -756.925
  N      489.747     581.080    -758.806
  C      490.811     581.311    -759.608
  C      491.773     582.295    -759.472
  C      491.674     583.195    -758.349
  O      492.460     584.097    -758.075
  N      492.710     582.214    -760.478
  C      492.295     581.217    -761.235
  N      491.145     580.638    -760.748
  O      495.531     577.874    -763.652
  O      494.922     579.082    -765.823
  H      487.816     579.269    -763.245
  H      495.542     577.144    -764.303
  H      490.444     583.534    -756.767
  H      492.798     580.868    -762.120
  H      489.865     579.050    -760.468
  H      489.121     580.849    -762.501
  H      488.482     582.417    -756.155
  H      491.173     580.450    -763.757
  H      487.982     581.030    -757.059
  H      490.587     577.455    -763.336
  H      493.036     577.219    -763.408
  H      492.420     577.922    -764.928
  P      489.266     580.639    -765.701
  C      488.731     581.054    -768.206
  O      489.409     580.247    -767.241
  O      490.443     581.708    -765.475
  O      487.937     581.178    -765.278
  H      490.106     582.604    -765.608
  H      488.919     580.671    -769.187
  H      489.087     582.061    -768.142
  H      487.679     581.034    -768.011

 6  7  8  9  10  11  12  13  14  15  26  29  33  34 0
 6-311+G(2d,p)
 ****
 36  38  39  40  41 0
 6-311+G(2d,p)
 ****
 1  2  3  4  5  16  17  18  19  20  21  22  23  24  25 0
 3-21G
 ****
 27  28  30  31  32  35  37  42  43  44  45  46  47 0
 3-21G
 ****
 48  49 0
 3-21G
 ****


