%nproc=1
%NoSave
%Mem=1900MB
#P OB98/GEN NMR

erre ene a

0 1
  C      234.925     150.900     141.319
  O      235.370     152.185     140.932
  H      234.093     150.609     140.673
  H      234.575     150.911     142.355
  H      235.728     150.167     141.204
  P      236.564     152.860     141.757
  C      238.416     152.192     140.086
  O      237.885     152.025     141.394
  C      239.921     152.432     140.152
  O      240.216     153.546     141.015
  C      240.723     151.248     140.690
  O      240.943     150.288     139.671
  C      242.002     151.950     141.116
  O      242.805     152.239     139.954
  C      241.457     153.260     141.716
  N      243.480     153.170     146.369
  C      244.094     153.082     145.134
  N      245.435     152.916     145.142
  N      243.452     153.139     143.998
  C      242.111     153.235     144.144
  C      241.386     153.313     145.311
  C      242.115     153.318     146.562
  O      241.611     153.417     147.677
  N      240.036     153.307     145.066
  C      239.948     153.280     143.751
  N      241.180     153.226     143.141
  O      236.335     153.024     143.230
  O      236.807     154.262     141.026
  H      243.150     151.389     139.626
  H      236.282     154.971     141.441
  H      244.026     153.112     147.213
  H      239.022     153.300     143.189
  H      242.134     154.105     141.545
  H      242.613     151.348     141.789
  H      245.963     152.717     145.978
  H      240.247     150.811     141.574
  H      245.893     152.792     144.248
  H      240.261     152.709     139.144
  H      237.911     153.051     139.632
  H      238.212     151.305     139.476
  P      240.764     148.714     139.946
  C      238.554     148.749     138.603
  O      239.188     148.442     139.833
  O      241.393     148.224     141.203
  O      241.318     148.018     138.620
  H      242.299     147.886     138.636
  H      237.511     148.519     138.672
  H      238.996     148.170     137.819
  H      238.676     149.790     138.389

 6  7  8  9  10  11  12  13  14  15  26  29  33  34 0
 6-311+G(2d,p)
 ****
 36  38  39  40  41 0
 6-311+G(2d,p)
 ****
 1  2  3  4  5  16  17  18  19  20  21  22  23  24  25 0
 3-21G
 ****
 27  28  30  31  32  35  37  42  43  44  45  46  47 0
 3-21G
 ****
 48  49 0
 3-21G
 ****


