%nproc=1
%NoSave
%Mem=1900MB
#P OB98/GEN NMR

erre ene a

0 1
  C      -11.583     185.365    -240.523
  O      -11.779     185.308    -241.922
  H      -12.490     185.049    -240.002
  H      -10.768     184.686    -240.253
  H      -11.313     186.380    -240.219
  P      -12.932     186.242    -242.531
  C      -11.704     188.349    -243.427
  O      -12.414     187.750    -242.350
  C      -10.494     189.104    -242.885
  O       -9.516     188.172    -242.370
  C       -9.759     189.940    -243.925
  O      -10.389     191.188    -244.152
  C       -8.414     190.117    -243.241
  O       -8.522     191.119    -242.213
  C       -8.196     188.733    -242.615
  N       -3.517     187.356    -244.160
  C       -3.941     188.319    -243.316
  N       -5.205     188.625    -242.962
  C       -6.081     187.815    -243.576
  C       -5.799     186.793    -244.468
  C       -4.441     186.566    -244.756
  N       -4.006     185.593    -245.629
  N       -6.965     186.203    -244.918
  C       -7.927     186.837    -244.283
  N       -7.446     187.825    -243.468
  O      -14.113     186.133    -241.454
  O      -13.384     185.898    -243.911
  H       -7.642     191.188    -241.797
  H      -14.963     186.386    -241.863
  H       -3.160     188.929    -242.868
  H       -8.984     186.617    -244.378
  H       -7.676     188.784    -241.653
  H       -7.625     190.440    -243.923
  H       -9.615     189.384    -244.862
  H      -10.830     189.729    -242.049
  H      -12.365     189.050    -243.945
  H       -3.037     185.637    -245.903
  H       -4.694     185.107    -246.186
  H      -11.387     187.569    -244.126
  P      -11.123     191.398    -245.564
  C      -13.396     192.081    -244.494
  O      -12.680     191.138    -245.290
  O      -10.671     190.116    -246.403
  O      -10.791     192.679    -246.257
  H      -10.692     190.301    -247.363
  H      -14.416     191.770    -244.403
  H      -13.357     193.044    -244.960
  H      -12.952     192.137    -243.522

 6  7  8  9  10  11  12  13  14  15  25  28  32  33  34  35 0
 6-311+G(2d,p)
 ****
 36  39  40 0
 6-311+G(2d,p)
 ****
 1  2  3  4  5  16  17  18  19  20  21  22  23  24 0
 3-21G
 ****
 26  27  29  30  31  37  38  41  42  43  44  45  46  47 0
 3-21G
 ****
 48 0
 3-21G
 ****


