%nproc=1
%NoSave
%Mem=1900MB
#P OB98/GEN NMR

erre ene a

0 1
  C     -197.525      -6.490    -292.655
  O     -196.791      -7.582    -293.170
  H     -197.733      -5.793    -293.471
  H     -196.946      -5.968    -291.891
  H     -198.477      -6.830    -292.237
  P     -196.356      -8.753    -292.164
  C     -195.932     -10.540    -293.992
  O     -195.356      -9.667    -293.034
  C     -194.849     -11.103    -294.910
  O     -194.507     -10.169    -295.953
  C     -193.524     -11.413    -294.225
  O     -193.558     -12.570    -293.406
  C     -192.634     -11.588    -295.441
  O     -192.893     -12.867    -296.047
  C     -193.127     -10.429    -296.338
  N     -192.317      -9.222    -296.195
  C     -191.026      -9.264    -296.741
  O     -190.614     -10.281    -297.298
  N     -190.216      -8.163    -296.613
  C     -190.645      -7.118    -295.971
  N     -189.797      -6.058    -295.867
  C     -191.988      -7.038    -295.366
  C     -192.762      -8.107    -295.513
  O     -197.470      -9.486    -291.490
  O     -195.342      -8.050    -291.145
  H     -192.460     -12.860    -296.919
  H     -195.050      -8.732    -290.491
  H     -192.286      -6.155    -294.818
  H     -193.760      -8.131    -295.088
  H     -193.136     -10.730    -297.393
  H     -191.571     -11.549    -295.204
  H     -193.167     -10.544    -293.655
  H     -195.264     -11.994    -295.400
  H     -188.884      -6.140    -296.293
  H     -196.678      -9.977    -294.563
  H     -190.019      -5.231    -295.323
  H     -196.425     -11.377    -293.487
  P     -192.934     -12.436    -291.930
  C     -193.375     -14.847    -291.025
  O     -192.435     -13.903    -291.518
  O     -194.217     -12.186    -291.016
  O     -191.897     -11.368    -291.775
  H     -194.326     -11.235    -290.820
  H     -192.874     -15.766    -290.801
  H     -194.127     -15.022    -291.766
  H     -193.832     -14.464    -290.137

 6  7  8  9  10  11  12  13  14  15  16  26  30  31  32  33  35 0
 6-311+G(2d,p)
 ****
 37  38 0
 6-311+G(2d,p)
 ****
 1  2  3  4  5  17  18  19  20  21  22  23  24  25 0
 3-21G
 ****
 27  28  29  34  36  39  40  41  42  43  44  45  46 0
 3-21G
 ****


