%nproc=1
%NoSave
%Mem=1900MB
#P OB98/GEN NMR

erre ene a

0 1
  C     -136.583     148.137      -0.227
  O     -136.879     149.224      -1.081
  H     -136.581     147.217      -0.817
  H     -137.344     148.056       0.554
  H     -135.597     148.268       0.226
  P     -136.913     150.676      -0.401
  C     -134.849     151.721      -1.603
  O     -135.397     151.200      -0.402
  C     -133.349     151.990      -1.433
  O     -132.695     150.749      -1.035
  C     -132.653     152.465      -2.718
  O     -131.538     153.290      -2.337
  C     -132.143     151.155      -3.296
  O     -131.194     151.386      -4.312
  C     -131.665     150.484      -2.013
  N     -128.714     146.555      -0.601
  C     -128.712     147.856      -0.238
  N     -129.537     148.841      -0.647
  C     -130.453     148.367      -1.508
  C     -130.585     147.066      -1.965
  C     -129.655     146.132      -1.477
  N     -129.647     144.808      -1.850
  N     -131.645     146.962      -2.847
  C     -132.143     148.181      -2.919
  N     -131.451     149.061      -2.135
  O     -137.206     150.355       1.138
  O     -137.907     151.630      -0.973
  H     -131.615     151.797      -5.096
  H     -138.162     150.429       1.317
  H     -127.944     148.145       0.475
  H     -132.989     148.480      -3.525
  H     -130.733     150.929      -1.643
  H     -132.960     150.587      -3.753
  H     -133.311     153.028      -3.386
  H     -133.204     152.701      -0.612
  H     -135.368     152.655      -1.845
  H     -135.001     151.004      -2.415
  H     -128.937     144.206      -1.466
  H     -130.333     144.482      -2.516
  P     -131.782     154.854      -2.056
  C     -131.316     154.617       0.507
  O     -132.201     155.040      -0.519
  O     -133.173     155.115      -2.812
  O     -130.724     155.776      -2.565
  H     -133.219     156.047      -3.099
  H     -131.756     154.817       1.462
  H     -130.391     155.148       0.422
  H     -131.134     153.567       0.411

 6  7  8  9  10  11  12  13  14  15  25  28  32  33  34  35 0
 6-311+G(2d,p)
 ****
 36  37  40 0
 6-311+G(2d,p)
 ****
 1  2  3  4  5  16  17  18  19  20  21  22  23  24 0
 3-21G
 ****
 26  27  29  30  31  38  39 41  42  43  44  45  46  47  48 0
 3-21G
 ****


