%nproc=1
%NoSave
%Mem=1900MB
#P OB98/GEN NMR

erre ene a

0 1
  C      -27.445     762.831    -735.895
  O      -26.959     763.275    -737.152
  P      -27.920     763.304    -738.434
  C      -26.620     765.323    -739.346
  O      -27.099     764.013    -739.628
  C      -25.502     765.727    -740.295
  O      -24.273     765.032    -739.942
  C      -25.781     765.389    -741.793
  O      -25.174     766.441    -742.574
  C      -25.034     764.089    -741.999
  O      -24.745     763.822    -743.371
  C      -23.793     764.351    -741.134
  N      -19.644     761.429    -741.932
  C      -20.067     762.596    -742.502
  N      -21.199     763.299    -742.243
  C      -21.937     762.696    -741.290
  C      -21.648     761.507    -740.634
  C      -20.450     760.871    -740.963
  N      -19.974     759.708    -740.365
  N      -22.682     761.185    -739.753
  C      -23.556     762.158    -739.898
  N      -23.128     763.120    -740.755
  O      -29.280     763.866    -738.202
  O      -27.990     761.779    -738.897
  H      -25.586     763.694    -743.840
  H      -28.866     761.400    -738.668
  H      -19.406     762.990    -743.260
  H      -24.517     762.217    -739.392
  H      -23.064     765.002    -741.630
  H      -25.623     763.255    -741.619
  H      -26.844     765.317    -742.031
  H      -25.300     766.805    -740.177
  H      -26.212     765.321    -738.316
  H      -19.039     759.409    -740.579
  H      -20.418     759.424    -739.487
  H      -27.442     766.049    -739.383
  P      -26.077     767.596    -743.211
  C      -24.054     769.117    -743.506
  O      -25.102     768.454    -744.166
  O      -26.915     768.370    -742.248
  O      -26.998     766.779    -744.279
  H      -27.765     767.344    -744.525
  H      -24.428     770.048    -743.040
  H      -23.272     769.373    -744.245
  H      -23.612     768.504    -742.736
  H      -26.660     762.885    -735.170
  H      -27.783     761.819    -735.980
  H      -28.259     763.454    -735.587

 3  4  5  6  7  8  9  10  11  12  22  25  29  30  31  32 0
 6-311+G(2d,p)
 ****
 33  36  37 0
 6-311+G(2d,p)
 ****
 1  2  13  14  15  16  17  18  19  20  21  23  24  26 0
 3-21G
 ****
 27  28  34  35  38  39  40  41  42  43  44  45  46  47  48 0
 3-21G
 ****


