%nproc=1
%NoSave
%Mem=1900MB
#P OB98/GEN NMR

erre ene a

0 1
  C      105.906     114.767     926.821
  O      105.106     114.447     925.684
  P      104.410     113.009     925.649
  C      106.318     111.490     924.753
  O      105.583     111.931     925.875
  C      106.205     109.978     924.598
  O      106.307     109.320     925.886
  C      104.872     109.505     924.024
  O      104.827     109.605     922.608
  C      104.871     108.039     924.447
  O      105.689     107.269     923.553
  C      105.522     108.114     925.838
  N      103.488     105.422     929.631
  C      104.612     105.171     928.853
  N      105.249     104.002     929.094
  N      105.077     105.978     927.947
  C      104.326     107.111     927.813
  C      103.207     107.486     928.507
  C      102.709     106.564     929.516
  O      101.686     106.713     930.190
  N      102.737     108.704     928.102
  C      103.572     109.079     927.153
  N      104.540     108.114     926.911
  O      104.028     112.817     924.106
  O      103.215     112.864     926.541
  H      105.367     107.441     922.645
  H      103.363     112.103     924.005
  H      103.174     104.768     930.314
  H      103.523     110.007     926.612
  H      106.198     107.265     926.015
  H      103.880     107.592     924.435
  H      104.912     103.300     929.744
  H      104.023     110.019     924.495
  H      106.040     103.747     928.507
  H      107.039     109.626     923.975
  H      107.369     111.768     924.872
  H      105.943     111.985     923.850
  P      103.384     109.883     921.948
  C      102.602     107.443     922.374
  O      102.406     108.813     922.627
  O      103.564     109.338     920.450
  O      102.957     111.313     921.991
  H      102.959     109.798     919.856
  H      102.038     106.856     923.100
  H      103.664     107.173     922.464
  H      102.249     107.190     921.365
  H      106.306     115.753     926.710
  H      106.708     114.064     926.902
  H      105.304     114.724     927.704

 3  4  5  6  7  8  9  10  11  12  23  26  30  31 0
 6-311+G(2d,p)
 ****
 33  35  36  37  38 0
 6-311+G(2d,p)
 ****
 1  2  13  14  15  16  17  18  19  20  21  22  24  25 0
 3-21G
 ****
 27  28  29  32  34  39  40  41  42  43  44  45  46  47  48  49 0
 3-21G
 ****


