%nproc=1
%NoSave
%Mem=1900MB
#P OB98/GEN NMR

erre ene a

0 1
  C      476.137    -144.812     104.484
  O      474.842    -145.354     104.661
  H      476.206    -143.876     105.051
  H      476.324    -144.598     103.426
  H      476.890    -145.512     104.862
  P      474.524    -146.718     103.877
  C      473.811    -145.243     101.884
  O      474.629    -146.322     102.325
  C      473.619    -145.299     100.363
  O      474.893    -145.042      99.724
  C      473.114    -146.662      99.866
  O      472.190    -146.446      98.796
  C      474.362    -147.329      99.324
  O      474.085    -148.308      98.328
  C      475.178    -146.126      98.822
  N      478.958    -148.014      95.963
  C      477.667    -147.730      95.684
  N      476.728    -147.215      96.499
  C      477.252    -146.941      97.715
  C      478.545    -147.172      98.151
  C      479.430    -147.749      97.211
  N      480.739    -148.065      97.492
  N      478.694    -146.797      99.475
  C      477.499    -146.330      99.829
  N      476.597    -146.410      98.796
  O      473.260    -147.410     104.273
  O      475.865    -147.557     104.114
  H      473.436    -148.946      98.690
  H      476.659    -147.003     103.989
  H      477.342    -147.960      94.668
  H      477.249    -145.944     100.809
  H      474.885    -145.832      97.805
  H      474.897    -147.830     100.153
  H      472.645    -147.251     100.650
  H      472.946    -144.494     100.068
  H      474.274    -144.280     102.160
  H      481.302    -148.453      96.762
  H      481.106    -147.850      98.410
  H      472.851    -145.329     102.392
  P      470.621    -146.634      99.095
  C      470.378    -148.501      97.319
  O      470.187    -148.128      98.683
  O      469.737    -145.545      98.589
  O      470.588    -146.702     100.699
  H      469.785    -146.233     101.020
  H      470.053    -149.510      97.176
  H      471.416    -148.422      97.070
  H      469.809    -147.850      96.688

 6  7  8  9  10  11  12  13  14  15  25  28  32  33  34  35 0
 6-311+G(2d,p)
 ****
 36  39  40 0
 6-311+G(2d,p)
 ****
 1  2  3  4  5  16  17  18  19  20  21  22  23  24 0
 3-21G
 ****
 26  27  29  30  31  37  38  41  42  43  44  45  46  47 0
 3-21G
 ****
 48 0
 3-21G
 ****


