%nproc=1
%NoSave
%Mem=1900MB
#P OB98/GEN NMR

erre ene a

0 1
  C       96.512    -392.563    -297.864
  O       95.979    -392.428    -296.555
  P       95.266    -391.037    -296.195
  C       93.792    -390.195    -294.223
  O       94.335    -391.305    -294.919
  C       92.451    -390.583    -293.566
  O       91.435    -390.687    -294.579
  C       92.467    -391.929    -292.855
  O       93.127    -391.836    -291.601
  C       90.967    -392.185    -292.758
  O       90.392    -391.439    -291.679
  C       90.459    -391.651    -294.107
  N       87.559    -395.579    -295.709
  C       87.461    -394.760    -294.641
  N       88.285    -393.741    -294.275
  C       89.298    -393.628    -295.140
  C       89.554    -394.406    -296.253
  C       88.627    -395.421    -296.550
  N       88.740    -396.252    -297.627
  N       90.702    -393.997    -296.905
  C       91.136    -392.976    -296.181
  N       90.310    -392.694    -295.118
  O       94.213    -390.847    -297.384
  O       96.194    -389.859    -296.079
  H       90.824    -391.733    -290.855
  H       94.101    -389.906    -297.615
  H       86.602    -394.920    -293.996
  H       92.044    -392.408    -296.392
  H       89.489    -391.145    -294.022
  H       90.724    -393.249    -292.583
  H       92.950    -392.689    -293.475
  H       92.169    -389.774    -292.881
  H       93.620    -389.369    -294.911
  H       88.121    -397.063    -297.674
  H       89.601    -396.240    -298.161
  H       94.508    -389.866    -293.458
  P       93.287    -393.198    -290.758
  C       95.252    -394.244    -289.453
  O       94.826    -393.156    -290.263
  O       93.326    -394.299    -291.922
  O       92.269    -393.400    -289.692
  H       93.944    -394.054    -292.637
  H       96.307    -394.113    -289.237
  H       95.106    -395.194    -289.984
  H       94.694    -394.245    -288.510
  H       96.956    -393.531    -297.970
  H       97.255    -391.810    -298.026
  H       95.727    -392.450    -298.582

 3  4  5  6  7  8  9  10  11  12  22  25  29  30  31  32 0
 6-311+G(2d,p)
 ****
 33  36  37 0
 6-311+G(2d,p)
 ****
 1  2  13  14  15  16  17  18  19  20  21  23  24  26 0
 3-21G
 ****
 27  28  34  35  38  39  40  41  42  43  44  45  46  47  48 0
 3-21G
 ****


