%nproc=1
%NoSave
%Mem=1900MB
#P OB98/GEN NMR

erre ene a

0 1
  C       35.161     197.043    -207.062
  O       34.789     196.215    -205.965
  P       34.224     194.750    -206.288
  C       35.591     193.394    -204.546
  O       35.400     193.728    -205.920
  C       37.072     193.190    -204.243
  O       37.844     194.323    -204.709
  C       37.413     193.049    -202.764
  O       37.191     191.724    -202.289
  C       38.892     193.360    -202.771
  O       39.643     192.209    -203.205
  C       38.987     194.481    -203.822
  N       41.569     197.792    -200.884
  C       41.813     196.509    -201.226
  N       41.081     195.683    -202.006
  C       39.956     196.310    -202.417
  C       39.544     197.608    -202.115
  C       40.419     198.373    -201.324
  N       40.186     199.686    -200.988
  N       38.335     197.895    -202.718
  C       38.016     196.792    -203.366
  N       38.967     195.808    -203.224
  O       34.200     194.711    -207.899
  O       32.883     194.443    -205.702
  H       40.589     192.460    -203.188
  H       33.550     194.057    -208.207
  H       42.731     196.078    -200.834
  H       37.126     196.664    -203.971
  H       39.894     194.404    -204.437
  H       39.277     193.627    -201.775
  H       36.873     193.792    -202.161
  H       37.419     192.305    -204.802
  H       35.055     192.469    -204.327
  H       40.937     200.223    -200.579
  H       39.430     200.168    -201.487
  H       35.185     194.207    -203.916
  P       36.013     191.522    -201.224
  C       34.884     189.581    -202.540
  O       34.778     190.904    -202.045
  O       35.544     193.022    -200.897
  O       36.412     190.774    -199.992
  H       35.148     193.078    -200.008
  H       33.881     189.223    -202.798
  H       35.307     188.918    -201.794
  H       35.496     189.562    -203.444
  H       35.517     197.983    -206.695
  H       34.311     197.205    -207.691
  H       35.935     196.564    -207.624

 3  4  5  6  7  8  9  10  11  12  22  25  29  30  31  32 0
 6-311+G(2d,p)
 ****
 33  36  37 0
 6-311+G(2d,p)
 ****
 1  2  13  14  15  16  17  18  19  20  21  23  24  26 0
 3-21G
 ****
 27  28  34  35  38  39  40  41  42  43  44  45  46  47  48 0
 3-21G
 ****


