%nproc=1
%NoSave
%Mem=1900MB
#P OB98/GEN NMR

erre ene a

0 1
  C      275.546    -400.152     514.858
  O      276.782    -399.477     514.786
  H      275.477    -400.661     515.823
  H      275.474    -400.900     514.061
  H      274.715    -399.446     514.776
  P      277.072    -398.640     513.448
  C      278.368    -400.604     512.324
  O      277.255    -399.722     512.268
  C      278.254    -401.656     511.228
  O      277.023    -402.406     511.392
  C      278.181    -401.072     509.820
  O      279.455    -400.676     509.332
  C      277.563    -402.228     509.049
  O      278.563    -403.194     508.665
  C      276.602    -402.841     510.077
  N      272.193    -404.276     507.929
  C      273.383    -404.926     508.086
  N      274.503    -404.471     508.679
  C      274.318    -403.235     509.171
  C      273.176    -402.463     509.094
  C      272.067    -403.032     508.438
  N      270.882    -402.375     508.257
  N      273.375    -401.227     509.681
  C      274.620    -401.252     510.123
  N      275.229    -402.449     509.836
  O      278.554    -398.077     513.684
  O      276.098    -397.544     513.164
  H      279.023    -403.452     509.496
  H      278.504    -397.148     513.974
  H      273.431    -405.921     507.661
  H      275.129    -400.447     510.626
  H      276.637    -403.938     510.078
  H      277.082    -401.878     508.142
  H      277.487    -400.225     509.801
  H      279.097    -402.354     511.318
  H      278.383    -401.105     513.302
  H      279.293    -400.022     512.215
  H      270.148    -402.818     507.722
  H      270.808    -401.400     508.530
  P      279.527    -399.385     508.388
  C      279.370    -400.730     506.152
  O      278.781    -399.761     507.013
  O      281.073    -399.301     507.979
  O      279.045    -398.120     509.026
  H      281.339    -398.358     507.906
  H      278.752    -400.862     505.289
  H      279.461    -401.661     506.672
  H      280.340    -400.395     505.849

 6  7  8  9  10  11  12  13  14  15  25  28  32  33  34  35 0
 6-311+G(2d,p)
 ****
 36  37  40 0
 6-311+G(2d,p)
 ****
 1  2  3  4  5  16  17  18  19  20  21  22  23  24 0
 3-21G
 ****
 26  27  29  30  31  38  39 41  42  43  44  45  46  47  48 0
 3-21G
 ****


