%nproc=1
%NoSave
%Mem=1900MB
#P OB98/GEN NMR

erre ene a

0 1
  C     -441.740    -534.947      97.903
  O     -440.971    -535.917      98.591
  H     -441.366    -534.870      96.879
  H     -441.640    -533.977      98.393
  H     -442.789    -535.244      97.876
  P     -441.379    -536.189     100.122
  C     -439.486    -534.488     100.684
  O     -440.796    -534.954     100.965
  C     -439.106    -533.345     101.637
  O     -438.952    -533.897     102.984
  C     -437.776    -532.652     101.285
  O     -437.858    -531.292     101.739
  C     -436.789    -533.427     102.147
  O     -435.551    -532.746     102.226
  C     -437.615    -533.555     103.417
  N     -434.923    -534.372     107.701
  C     -435.305    -533.237     107.072
  N     -436.035    -533.092     105.946
  C     -436.391    -534.297     105.464
  C     -436.089    -535.544     105.992
  C     -435.304    -535.558     107.166
  N     -434.914    -536.715     107.790
  N     -436.631    -536.547     105.202
  C     -437.241    -535.922     104.226
  N     -437.127    -534.562     104.337
  O     -440.441    -537.417     100.540
  O     -442.824    -536.492     100.357
  H     -435.097    -532.763     101.358
  H     -440.925    -538.259     100.430
  H     -434.978    -532.304     107.551
  H     -437.789    -536.391     103.420
  H     -437.678    -532.610     103.970
  H     -436.584    -534.405     101.711
  H     -437.554    -532.664     100.215
  H     -439.934    -532.632     101.685
  H     -439.462    -534.126      99.646
  H     -438.767    -535.311     100.801
  H     -434.343    -536.639     108.618
  H     -435.180    -537.609     107.392
  P     -438.292    -530.138     100.709
  C     -435.970    -528.961     100.490
  O     -437.009    -529.697      99.854
  O     -438.501    -528.879     101.677
  O     -439.534    -530.406      99.917
  H     -439.152    -528.278     101.286
  H     -435.197    -528.750      99.781
  H     -435.567    -529.537     101.297
  H     -436.365    -528.042     100.870

 6  7  8  9  10  11  12  13  14  15  25  28  32  33  34  35 0
 6-311+G(2d,p)
 ****
 36  37  40 0
 6-311+G(2d,p)
 ****
 1  2  3  4  5  16  17  18  19  20  21  22  23  24 0
 3-21G
 ****
 26  27  29  30  31  38  39 41  42  43  44  45  46  47  48 0
 3-21G
 ****


