%nproc=1
%NoSave
%Mem=1900MB
#P OB98/GEN NMR

erre ene a

0 1
  C     -259.161     302.571     266.389
  O     -257.957     302.571     265.623
  P     -256.620     301.961     266.260
  C     -254.394     302.811     267.247
  O     -255.654     303.166     266.699
  C     -253.373     303.947     267.064
  O     -253.073     304.114     265.648
  C     -253.869     305.295     267.604
  O     -252.936     305.927     268.482
  C     -254.231     306.068     266.347
  O     -254.214     307.476     266.536
  C     -253.260     305.499     265.309
  N     -253.758     305.672     263.940
  C     -253.591     306.920     263.363
  O     -253.120     307.885     263.972
  N     -254.034     307.058     262.077
  C     -254.688     306.104     261.353
  O     -255.108     306.289     260.218
  C     -254.896     304.819     262.033
  C     -254.428     304.663     263.277
  O     -255.960     300.877     265.476
  O     -257.127     301.398     267.680
  H     -254.474     307.903     265.693
  H     -256.663     300.557     267.854
  H     -253.901     307.960     261.641
  H     -255.432     304.046     261.503
  H     -254.579     303.733     263.809
  H     -252.285     306.002     265.362
  H     -255.253     305.796     266.057
  H     -254.768     305.170     268.220
  H     -252.452     303.645     267.579
  H     -254.020     301.917     266.746
  H     -254.518     302.544     268.302
  P     -253.338     306.764     269.785
  C     -254.099     309.180     270.320
  O     -253.625     308.275     269.344
  O     -252.430     306.609     270.959
  O     -254.797     306.197     270.141
  H     -254.878     306.105     271.105
  H     -254.583     310.020     269.812
  H     -253.257     309.565     270.899
  H     -254.819     308.706     270.986
  H     -259.949     303.012     265.815
  H     -259.013     303.136     267.285
  H     -259.423     301.565     266.641

 3  4  5  6  7  8  9  10  11  12  13  23  28  29  30  31  32 0
 6-311+G(2d,p)
 ****
 33  34 0
 6-311+G(2d,p)
 ****
 1  2  14  15  16  17  18  19  20  21  22  24  25  26  27 0
 3-21G
 ****
 35  36  37  38  39  40  41  42  43  44  45 0
 3-21G
 ****


