%nproc=1
%NoSave
%Mem=1900MB
#P OB98/GEN NMR

erre ene a

0 1
  C       98.731     349.444     -79.056
  O       98.733     348.070     -79.386
  H       99.184     349.565     -78.068
  H       97.708     349.825     -79.020
  H       99.318     350.014     -79.781
  P       98.116     347.620     -80.797
  C       95.812     347.185     -79.693
  O       96.543     347.931     -80.653
  C       94.319     347.480     -79.821
  O       94.009     348.815     -79.375
  C       93.772     347.416     -81.242
  O       93.644     346.098     -81.749
  C       92.427     348.088     -81.039
  O       91.523     347.175     -80.392
  C       92.821     349.251     -80.096
  N       93.084     350.497     -80.817
  C       92.005     351.064     -81.504
  O       90.901     350.521     -81.500
  N       92.210     352.220     -82.217
  C       93.391     352.752     -82.259
  N       93.538     353.894     -82.986
  C       94.559     352.179     -81.565
  C       94.339     351.064     -80.869
  O       98.459     346.238     -81.251
  O       98.577     348.762     -81.818
  H       90.712     347.676     -80.191
  H       98.229     348.525     -82.713
  H       95.532     352.643     -81.657
  H       95.151     350.581     -80.339
  H       92.035     349.432     -79.349
  H       91.954     348.405     -81.968
  H       94.370     348.038     -81.920
  H       93.788     346.786     -79.156
  H       92.719     354.265     -83.449
  H       96.179     347.451     -78.698
  H       94.435     354.336     -83.135
  H       95.965     346.113     -79.854
  P       94.182     345.835     -83.243
  C       91.816     346.284     -84.257
  O       93.192     346.630     -84.222
  O       93.827     344.298     -83.488
  O       95.632     346.136     -83.458
  H       94.611     343.734     -83.340
  H       91.308     346.911     -84.960
  H       91.389     346.419     -83.285
  H       91.713     345.261     -84.553

 6  7  8  9  10  11  12  13  14  15  16  26  30  31  32  33  35 0
 6-311+G(2d,p)
 ****
 37  38 0
 6-311+G(2d,p)
 ****
 1  2  3  4  5  17  18  19  20  21  22  23  24  25 0
 3-21G
 ****
 27  28  29  34  36  39  40  41  42  43  44  45  46 0
 3-21G
 ****


