%nproc=1
%NoSave
%Mem=1900MB
#P OB98/GEN NMR

erre ene a

0 1
  C      583.563     410.430     433.001
  O      584.332     410.871     431.897
  H      582.760     411.147     433.180
  H      584.191     410.372     433.898
  H      583.128     409.452     432.791
  P      585.632     409.996     431.540
  C      587.591     411.719     431.475
  O      586.574     411.035     430.756
  C      588.729     412.089     430.527
  O      589.372     410.897     430.019
  C      588.283     412.870     429.295
  O      588.049     414.243     429.561
  C      589.490     412.661     428.392
  O      590.566     413.510     428.828
  C      589.811     411.174     428.662
  N      589.161     410.267     427.716
  C      589.995     409.439     426.958
  O      591.218     409.497     427.083
  N      589.428     408.585     426.039
  C      588.141     408.549     425.900
  N      587.633     407.697     424.969
  C      587.218     409.388     426.691
  C      587.791     410.213     427.569
  O      585.127     409.031     430.365
  O      586.281     409.294     432.685
  H      591.341     413.290     428.280
  H      585.895     408.534     429.990
  H      586.156     409.335     426.531
  H      587.175     410.862     428.180
  H      590.895     410.997     428.625
  H      589.289     412.907     427.347
  H      587.412     412.411     428.818
  H      589.480     412.646     431.102
  H      588.291     407.177     424.400
  H      587.958     411.061     432.264
  H      586.670     407.732     424.668
  H      587.188     412.629     431.925
  P      586.709     414.898     428.981
  C      588.197     416.183     427.284
  O      587.135     416.247     428.224
  O      585.972     415.433     430.297
  O      585.840     413.966     428.187
  H      585.007     415.300     430.236
  H      588.363     417.154     426.866
  H      587.941     415.498     426.503
  H      589.088     415.849     427.774

 6  7  8  9  10  11  12  13  14  15  16  26  30  31  32  33  35 0
 6-311+G(2d,p)
 ****
 37  38 0
 6-311+G(2d,p)
 ****
 1  2  3  4  5  17  18  19  20  21  22  23  24  25 0
 3-21G
 ****
 27  28  29  34  36  39  40  41  42  43  44  45  46 0
 3-21G
 ****


