%nproc=1
%NoSave
%Mem=1900MB
#P OB98/GEN NMR

erre ene a

0 1
  C      198.253    -339.017    -265.489
  O      197.611    -339.453    -266.694
  P      198.225    -338.877    -268.069
  C      196.848    -336.715    -268.437
  O      198.080    -337.276    -268.026
  C      196.985    -335.201    -268.708
  O      198.120    -334.948    -269.585
  C      195.745    -334.577    -269.357
  O      195.625    -333.239    -268.834
  C      196.144    -334.530    -270.826
  O      195.331    -333.683    -271.615
  C      197.609    -334.151    -270.692
  N      199.766    -331.892    -274.726
  C      199.036    -331.400    -273.708
  N      198.483    -332.068    -272.664
  C      198.774    -333.388    -272.752
  C      199.503    -334.028    -273.735
  C      200.017    -333.233    -274.768
  N      200.752    -333.720    -275.825
  N      199.562    -335.401    -273.487
  C      198.802    -335.564    -272.415
  N      198.381    -334.380    -271.890
  O      197.171    -339.335    -269.171
  O      199.602    -339.375    -268.348
  H      195.631    -333.699    -272.539
  H      197.478    -340.125    -269.635
  H      198.864    -330.333    -273.723
  H      198.546    -336.516    -271.972
  H      197.736    -333.087    -270.415
  H      196.049    -335.552    -271.258
  H      194.813    -335.125    -269.167
  H      197.189    -334.710    -267.749
  H      196.087    -336.873    -267.661
  H      201.059    -333.061    -276.526
  H      200.937    -334.697    -275.903
  H      196.492    -337.239    -269.332
  P      194.319    -332.867    -267.978
  C      193.012    -331.884    -269.949
  O      193.106    -332.955    -269.022
  O      194.507    -331.281    -267.844
  O      194.162    -333.576    -266.679
  H      194.693    -330.871    -268.710
  H      192.190    -332.124    -270.648
  H      193.941    -331.790    -270.515
  H      192.773    -330.958    -269.429
  H      197.765    -339.459    -264.645
  H      198.192    -337.951    -265.418
  H      199.280    -339.316    -265.504

 3  4  5  6  7  8  9  10  11  12  22  25  29  30  31  32 0
 6-311+G(2d,p)
 ****
 33  36  37 0
 6-311+G(2d,p)
 ****
 1  2  13  14  15  16  17  18  19  20  21  23  24  26 0
 3-21G
 ****
 27  28  34  35  38  39  40  41  42  43  44  45  46  47  48 0
 3-21G
 ****


