%nproc=1
%NoSave
%Mem=1900MB
#P OB98/GEN NMR

erre ene a

0 1
  C      170.675    -983.728    -560.451
  O      169.981    -983.578    -559.223
  H      171.013    -982.744    -560.776
  H      170.016    -984.142    -561.211
  H      171.546    -984.380    -560.321
  P      169.485    -984.925    -558.501
  C      169.836    -983.851    -556.151
  O      170.154    -984.912    -557.031
  C      170.416    -984.133    -554.760
  O      169.620    -985.185    -554.141
  C      171.872    -984.616    -554.805
  O      172.568    -984.089    -553.692
  C      171.745    -986.132    -554.663
  O      172.913    -986.758    -554.166
  C      170.539    -986.232    -553.718
  N      169.890    -987.542    -553.800
  C      170.291    -988.508    -552.879
  O      171.100    -988.313    -551.972
  N      169.730    -989.745    -553.030
  C      168.834    -990.115    -553.997
  O      168.370    -991.235    -554.090
  C      168.442    -989.050    -554.933
  C      168.987    -987.839    -554.800
  O      170.292    -986.076    -559.267
  O      168.013    -985.163    -558.516
  H      169.794    -986.401    -560.023
  H      173.116    -986.356    -553.288
  H      170.010    -990.456    -552.375
  H      167.752    -989.310    -555.729
  H      168.737    -987.033    -555.490
  H      170.835    -986.019    -552.694
  H      171.514    -986.584    -555.632
  H      172.388    -984.347    -555.731
  H      170.310    -983.243    -554.150
  H      168.741    -983.755    -556.086
  H      170.248    -982.914    -556.552
  P      174.080    -983.555    -553.918
  C      173.117    -981.171    -554.402
  O      173.933    -982.250    -554.846
  O      174.625    -984.675    -554.915
  O      174.836    -983.373    -552.649
  H      173.966    -985.008    -555.556
  H      173.130    -980.390    -555.133
  H      173.495    -980.797    -553.474
  H      172.113    -981.516    -554.266

 6  7  8  9  10  11  12  13  14  15  16  27  31  32  33  34  35 0
 6-311+G(2d,p)
 ****
 36  37 0
 6-311+G(2d,p)
 ****
 1  2  3  4  5  17  18  19  20  21  22  23  24  25 0
 3-21G
 ****
 26  28  29  30  38  39  40  41  42  43  44  45 0
 3-21G
 ****


