%nproc=1
%NoSave
%Mem=1900MB
#P OB98/GEN NMR

erre ene a

0 1
  C     -370.432    -226.348     168.607
  O     -370.652    -225.918     167.272
  P     -370.400    -224.375     166.917
  C     -371.644    -222.137     167.494
  O     -371.599    -223.545     167.586
  C     -372.365    -221.541     168.714
  O     -371.718    -222.020     169.928
  C     -372.379    -220.007     168.771
  O     -373.628    -219.610     169.341
  C     -371.226    -219.701     169.722
  O     -371.335    -218.416     170.314
  C     -371.361    -220.862     170.713
  N     -370.140    -221.124     171.480
  C     -370.029    -220.550     172.739
  O     -370.883    -219.823     173.243
  N     -368.866    -220.818     173.416
  C     -367.797    -221.530     172.932
  O     -366.765    -221.726     173.577
  C     -367.954    -222.068     171.576
  C     -369.096    -221.856     170.927
  O     -370.742    -224.361     165.349
  O     -369.031    -223.895     167.272
  H     -371.461    -224.964     165.110
  H     -371.327    -217.749     169.613
  H     -368.770    -220.450     174.349
  H     -367.122    -222.630     171.149
  H     -369.242    -222.241     169.920
  H     -372.194    -220.673     171.403
  H     -370.275    -219.746     169.173
  H     -372.260    -219.552     167.781
  H     -373.402    -221.934     168.719
  H     -372.181    -221.843     166.595
  H     -370.624    -221.743     167.426
  P     -374.248    -218.190     168.898
  C     -373.512    -215.685     169.157
  O     -373.279    -217.044     169.463
  O     -375.510    -218.107     169.884
  O     -374.632    -218.089     167.456
  H     -375.287    -218.310     170.803
  H     -372.977    -215.061     169.885
  H     -374.575    -215.440     169.198
  H     -373.123    -215.467     168.157
  H     -370.641    -227.394     168.684
  H     -371.076    -225.806     169.267
  H     -369.412    -226.168     168.876

 3  4  5  6  7  8  9  10  11  12  13  24  28  29  30  31  32 0
 6-311+G(2d,p)
 ****
 33  34 0
 6-311+G(2d,p)
 ****
 1  2  14  15  16  17  18  19  20  21  22  23  25  26  27 0
 3-21G
 ****
 35  36  37  38  39  40  41  42  43  44  45 0
 3-21G
 ****


