%nproc=1
%NoSave
%Mem=1900MB
#P OB98/GEN NMR

erre ene a

0 1
  C     -287.560    -470.879    -188.562
  O     -286.724    -471.585    -189.458
  H     -286.963    -470.556    -187.705
  H     -288.368    -471.525    -188.208
  H     -287.976    -469.997    -189.056
  P     -287.423    -472.179    -190.777
  C     -286.142    -474.431    -190.684
  O     -286.340    -473.201    -191.376
  C     -284.790    -475.037    -191.045
  O     -284.732    -475.334    -192.455
  C     -283.598    -474.126    -190.758
  O     -283.214    -474.237    -189.394
  C     -282.546    -474.729    -191.678
  O     -281.966    -475.895    -191.055
  C     -283.367    -475.147    -192.906
  N     -282.440    -474.519    -197.914
  C     -282.176    -475.545    -197.083
  N     -282.398    -475.624    -195.750
  C     -282.965    -474.490    -195.292
  C     -283.286    -473.359    -196.031
  C     -283.009    -473.401    -197.407
  N     -283.272    -472.347    -198.259
  N     -283.853    -472.396    -195.223
  C     -283.925    -472.958    -194.034
  N     -283.368    -474.210    -194.014
  O     -287.974    -471.170    -191.726
  O     -288.508    -473.167    -190.130
  H     -282.710    -476.462    -190.773
  H     -288.127    -473.636    -189.368
  H     -281.726    -476.418    -197.536
  H     -284.384    -472.506    -193.160
  H     -283.028    -476.111    -193.317
  H     -281.725    -474.040    -191.883
  H     -283.790    -473.098    -191.057
  H     -284.691    -475.990    -190.511
  H     -286.947    -475.138    -190.937
  H     -282.868    -472.388    -199.178
  H     -283.579    -471.473    -197.850
  H     -286.195    -474.217    -189.612
  P     -284.087    -473.554    -188.233
  C     -282.686    -471.407    -188.015
  O     -283.047    -472.645    -187.414
  O     -284.899    -474.506    -187.423
  O     -284.978    -472.471    -188.996
  H     -285.726    -472.195    -188.428
  H     -281.993    -470.892    -187.383
  H     -283.562    -470.807    -188.148
  H     -282.232    -471.591    -188.966

 6  7  8  9  10  11  12  13  14  15  25  28  32  33  34  35 0
 6-311+G(2d,p)
 ****
 36  39  40 0
 6-311+G(2d,p)
 ****
 1  2  3  4  5  16  17  18  19  20  21  22  23  24 0
 3-21G
 ****
 26  27  29  30  31  37  38  41  42  43  44  45  46  47 0
 3-21G
 ****
 48 0
 3-21G
 ****


