%nproc=1
%NoSave
%Mem=1900MB
#P OB98/GEN NMR

erre ene a

0 1
  C     -136.027    -294.058     350.639
  O     -137.197    -294.603     351.214
  H     -136.079    -294.109     349.549
  H     -135.942    -293.011     350.941
  H     -135.147    -294.602     350.995
  P     -137.558    -296.111     350.801
  C     -137.519    -297.392     353.055
  O     -138.314    -296.761     352.060
  C     -138.351    -297.657     354.302
  O     -138.871    -296.418     354.829
  C     -139.571    -298.542     354.081
  O     -139.227    -299.919     354.015
  C     -140.379    -298.226     355.332
  O     -139.867    -298.989     356.443
  C     -140.094    -296.733     355.544
  N     -144.146    -293.867     356.876
  C     -143.293    -294.616     357.612
  N     -142.247    -295.360     357.190
  C     -142.102    -295.268     355.855
  C     -142.891    -294.542     354.979
  C     -143.964    -293.821     355.535
  N     -144.837    -293.071     354.776
  N     -142.440    -294.677     353.687
  C     -141.391    -295.472     353.777
  N     -141.151    -295.859     355.068
  O     -136.136    -296.850     350.801
  O     -138.254    -296.266     349.489
  H     -140.413    -298.752     357.218
  H     -136.123    -297.516     350.086
  H     -143.472    -294.622     358.685
  H     -140.772    -295.781     352.939
  H     -139.912    -296.503     356.602
  H     -141.441    -298.468     355.231
  H     -140.136    -298.226     353.197
  H     -137.689    -298.092     355.063
  H     -136.678    -296.739     353.317
  H     -145.451    -292.429     355.246
  H     -144.687    -293.038     353.774
  H     -137.128    -298.332     352.653
  P     -140.335    -300.931     353.440
  C     -138.446    -302.518     352.626
  O     -139.623    -302.369     353.413
  O     -140.424    -300.533     351.891
  O     -141.662    -300.862     354.109
  H     -141.300    -300.780     351.536
  H     -138.088    -303.523     352.706
  H     -137.694    -301.842     352.977
  H     -138.671    -302.300     351.603

 6  7  8  9  10  11  12  13  14  15  25  28  32  33  34  35 0
 6-311+G(2d,p)
 ****
 36  39  40 0
 6-311+G(2d,p)
 ****
 1  2  3  4  5  16  17  18  19  20  21  22  23  24 0
 3-21G
 ****
 26  27  29  30  31  37  38  41  42  43  44  45  46  47  48 0
 3-21G
 ****


