%nproc=1
%NoSave
%Mem=1900MB
#P OB98/GEN NMR

erre ene a

0 1
  C     -593.317    -307.356     342.643
  O     -593.357    -308.248     341.547
  H     -593.347    -306.332     342.263
  H     -592.394    -307.496     343.215
  H     -594.182    -307.519     343.291
  P     -593.209    -309.813     341.891
  C     -595.758    -309.948     342.430
  O     -594.426    -310.089     342.904
  C     -596.343    -311.318     342.105
  O     -596.314    -312.173     343.273
  C     -597.802    -311.296     341.658
  O     -597.975    -310.886     340.313
  C     -598.157    -312.761     341.852
  O     -597.575    -313.543     340.793
  C     -597.474    -313.052     343.206
  N     -598.355    -312.825     344.354
  C     -599.304    -313.819     344.623
  O     -599.378    -314.822     343.916
  N     -600.176    -313.633     345.671
  C     -600.095    -312.564     346.401
  N     -600.987    -312.437     347.419
  C     -599.103    -311.500     346.164
  C     -598.275    -311.694     345.137
  O     -591.934    -309.860     342.856
  O     -593.140    -310.738     340.722
  H     -597.990    -313.241     339.963
  H     -591.842    -310.765     343.247
  H     -599.083    -310.620     346.790
  H     -597.519    -310.952     344.902
  H     -597.105    -314.083     343.247
  H     -599.231    -312.951     341.833
  H     -598.420    -310.692     342.337
  H     -595.704    -311.783     341.344
  H     -601.691    -313.155     347.520
  H     -595.740    -309.325     341.529
  H     -601.101    -311.581     347.945
  H     -596.378    -309.460     343.185
  P     -599.409    -310.293     339.902
  C     -598.919    -307.734     339.994
  O     -599.539    -308.858     340.608
  O     -600.430    -311.206     340.725
  O     -599.697    -310.310     338.434
  H     -601.256    -311.344     340.224
  H     -599.098    -306.861     340.585
  H     -599.327    -307.592     339.015
  H     -597.865    -307.904     339.920

 6  7  8  9  10  11  12  13  14  15  16  26  30  31  32  33  35 0
 6-311+G(2d,p)
 ****
 37  38 0
 6-311+G(2d,p)
 ****
 1  2  3  4  5  17  18  19  20  21  22  23  24  25 0
 3-21G
 ****
 27  28  29  34  36  39  40  41  42  43  44  45  46 0
 3-21G
 ****


