%nproc=1
%NoSave
%Mem=1900MB
#P OB98/GEN NMR

erre ene a

0 1
  C      -62.793     -83.677     173.406
  O      -62.573     -82.643     174.340
  H      -63.707     -83.455     172.849
  H      -62.925     -84.625     173.934
  H      -61.964     -83.762     172.700
  P      -61.109     -82.463     174.959
  C      -61.653     -84.271     176.722
  O      -60.727     -83.814     175.743
  C      -61.055     -85.378     177.590
  O      -61.051     -86.622     176.855
  C      -59.605     -85.094     177.988
  O      -59.457     -84.316     179.162
  C      -59.052     -86.503     178.190
  O      -59.267     -86.958     179.537
  C      -59.863     -87.349     177.203
  N      -56.508     -90.494     174.969
  C      -56.859     -90.409     176.305
  N      -56.204     -91.241     177.143
  N      -57.753     -89.572     176.759
  C      -58.250     -88.737     175.818
  C      -57.963     -88.714     174.471
  C      -57.024     -89.693     173.963
  O      -56.692     -89.821     172.787
  N      -58.627     -87.698     173.828
  C      -59.244     -87.055     174.802
  N      -59.108     -87.697     176.011
  O      -61.339     -81.423     176.160
  O      -60.066     -81.953     174.012
  H      -58.932     -86.270     180.144
  H      -60.538     -80.881     176.277
  H      -55.833     -91.178     174.675
  H      -59.836     -86.156     174.680
  H      -60.190     -88.292     177.660
  H      -57.971     -86.528     178.018
  H      -55.449     -91.842     176.861
  H      -59.060     -84.633     177.158
  H      -56.294     -91.079     178.150
  H      -61.690     -85.529     178.473
  H      -62.520     -84.649     176.177
  H      -61.990     -83.438     177.343
  P      -58.515     -83.026     179.179
  C      -56.778     -83.877     180.954
  O      -57.053     -83.475     179.629
  O      -59.053     -82.202     180.439
  O      -58.523     -82.207     177.930
  H      -59.659     -81.490     180.154
  H      -55.743     -84.135     181.041
  H      -57.380     -84.727     181.201
  H      -57.002     -83.074     181.624

 6  7  8  9  10  11  12  13  14  15  26  29  33  34 0
 6-311+G(2d,p)
 ****
 36  38  39  40  41 0
 6-311+G(2d,p)
 ****
 1  2  3  4  5  16  17  18  19  20  21  22  23  24  25 0
 3-21G
 ****
 27  28  30  31  32  35  37  42  43  44  45  46  47 0
 3-21G
 ****
 48  49 0
 3-21G
 ****


