%nproc=1
%NoSave
%Mem=1900MB
#P OB98/GEN NMR

erre ene a

0 1
  C       39.993     -10.932    -202.674
  O       40.539     -11.745    -203.690
  P       40.736     -13.321    -203.480
  C       42.500     -14.844    -202.376
  O       42.053     -13.506    -202.573
  C       43.618     -14.883    -201.329
  O       43.120     -14.285    -200.091
  C       44.086     -16.317    -201.004
  O       45.498     -16.518    -201.112
  C       43.495     -16.561    -199.624
  O       44.137     -17.588    -198.897
  C       43.534     -15.153    -199.017
  N       42.683     -15.026    -197.836
  C       43.277     -14.547    -196.672
  O       44.458     -14.216    -196.579
  N       42.479     -14.509    -195.562
  C       41.210     -15.001    -195.471
  O       40.588     -15.027    -194.417
  C       40.648     -15.534    -196.724
  C       41.385     -15.503    -197.837
  O       40.732     -14.137    -204.728
  O       39.568     -13.698    -202.450
  H       44.194     -18.375    -199.473
  H       39.608     -13.230    -201.597
  H       42.898     -14.165    -194.711
  H       39.647     -15.940    -196.678
  H       40.998     -15.888    -198.774
  H       44.552     -14.866    -198.741
  H       42.449     -16.869    -199.758
  H       43.662     -17.039    -201.713
  H       44.445     -14.272    -201.703
  H       42.882     -15.232    -203.324
  H       41.655     -15.477    -202.079
  P       46.198     -17.727    -201.891
  C       46.100     -20.321    -201.723
  O       45.917     -19.077    -201.080
  O       47.626     -17.501    -202.265
  O       45.294     -17.897    -203.205
  H       45.840     -18.246    -203.932
  H       45.425     -21.053    -201.269
  H       47.131     -20.657    -201.573
  H       45.887     -20.256    -202.795
  H       39.947      -9.919    -203.014
  H       40.610     -10.988    -201.802
  H       39.007     -11.273    -202.436

 3  4  5  6  7  8  9  10  11  12  13  23  28  29  30  31  32 0
 6-311+G(2d,p)
 ****
 33  34 0
 6-311+G(2d,p)
 ****
 1  2  14  15  16  17  18  19  20  21  22  24  25  26  27 0
 3-21G
 ****
 35  36  37  38  39  40  41  42  43  44  45 0
 3-21G
 ****


