%nproc=1
%NoSave
%Mem=1900MB
#P OB98/GEN NMR

erre ene a

0 1
  C       46.893    -165.911     -53.286
  O       47.699    -166.888     -53.919
  P       49.203    -167.082     -53.403
  C       49.644    -165.406     -55.337
  O       50.184    -166.402     -54.476
  C       50.659    -165.004     -56.413
  O       50.048    -164.066     -57.332
  C       51.918    -164.335     -55.847
  O       53.050    -164.686     -56.659
  C       51.653    -162.860     -56.055
  O       52.872    -162.111     -56.102
  C       50.883    -162.890     -57.374
  N       50.918    -158.127     -59.071
  C       51.842    -159.135     -59.263
  N       52.969    -158.796     -59.934
  N       51.672    -160.360     -58.853
  C       50.504    -160.550     -58.194
  C       49.500    -159.631     -57.951
  C       49.710    -158.276     -58.403
  O       48.941    -157.334     -58.237
  N       48.449    -160.209     -57.286
  C       48.829    -161.458     -57.082
  N       50.079    -161.702     -57.584
  O       49.453    -168.651     -53.610
  O       49.430    -166.686     -51.985
  H       52.623    -161.185     -56.304
  H       49.430    -169.108     -52.749
  H       51.096    -157.188     -59.399
  H       48.246    -162.210     -56.563
  H       51.558    -162.994     -58.234
  H       51.039    -162.463     -55.237
  H       53.184    -157.849     -60.221
  H       52.129    -164.577     -54.797
  H       53.678    -159.502     -60.049
  H       50.921    -165.899     -56.991
  H       49.387    -164.524     -54.744
  H       48.729    -165.785     -55.804
  P       54.048    -165.785     -56.033
  C       56.146    -164.248     -56.187
  O       55.499    -165.431     -56.614
  O       53.642    -167.128     -56.809
  O       53.948    -165.927     -54.554
  H       53.873    -167.910     -56.270
  H       57.064    -164.515     -55.656
  H       55.514    -163.644     -55.524
  H       56.409    -163.652     -57.064
  H       45.923    -165.901     -53.738
  H       47.348    -164.948     -53.395
  H       46.799    -166.145     -52.246

 3  4  5  6  7  8  9  10  11  12  23  26  30  31 0
 6-311+G(2d,p)
 ****
 33  35  36  37  38 0
 6-311+G(2d,p)
 ****
 1  2  13  14  15  16  17  18  19  20  21  22  24  25 0
 3-21G
 ****
 27  28  29  32  34  39  40  41  42  43  44  45  46  47  48  49 0
 3-21G
 ****


