%nproc=1
%NoSave
%Mem=1900MB
#P OB98/GEN NMR

erre ene a

0 1
  C     -925.962    -944.500     860.529
  O     -926.320    -944.196     861.858
  P     -925.480    -944.841     863.072
  C     -923.151    -943.763     863.082
  O     -924.469    -943.732     863.626
  C     -922.390    -942.512     863.496
  O     -922.886    -941.340     862.789
  C     -922.486    -942.159     864.968
  O     -921.725    -943.037     865.769
  C     -922.008    -940.701     864.962
  O     -920.571    -940.656     864.921
  C     -922.595    -940.199     863.611
  N     -923.767    -939.368     863.837
  C     -923.531    -938.045     864.232
  O     -922.378    -937.647     864.472
  N     -924.604    -937.195     864.357
  C     -925.805    -937.635     864.194
  N     -926.841    -936.742     864.290
  C     -926.112    -939.066     863.932
  C     -925.058    -939.847     863.741
  O     -924.866    -946.173     862.797
  O     -926.575    -944.949     864.261
  H     -926.536    -945.851     864.632
  H     -920.301    -941.172     864.114
  H     -927.145    -939.396     863.874
  H     -925.171    -940.905     863.512
  H     -921.830    -939.626     863.095
  H     -922.328    -940.163     865.855
  H     -923.531    -942.194     865.283
  H     -921.326    -942.650     863.189
  H     -926.578    -935.771     864.448
  H     -923.219    -943.806     861.998
  H     -927.740    -936.930     863.872
  H     -922.637    -944.650     863.445
  P     -922.261    -943.295     867.268
  C     -923.430    -945.494     866.518
  O     -922.500    -944.880     867.417
  O     -923.739    -942.684     867.244
  O     -921.435    -942.672     868.329
  H     -923.929    -942.257     868.108
  H     -923.221    -946.576     866.534
  H     -923.314    -945.116     865.502
  H     -924.452    -945.335     866.878
  H     -926.620    -943.990     859.857
  H     -926.039    -945.556     860.371
  H     -924.955    -944.185     860.350

 3  4  5  6  7  8  9  10  11  12  13  24  27  28  29  30  32 0
 6-311+G(2d,p)
 ****
 34  35 0
 6-311+G(2d,p)
 ****
 1  2  14  15  16  17  18  19  20  21  22  23  25  26 0
 3-21G
 ****
 31  33  36  37  38  39  40  41  42  43  44  45  46 0
 3-21G
 ****


