%nproc=1
%NoSave
%Mem=1900MB
#P OB98/GEN NMR

erre ene a

0 1
  C     -808.058     305.273     447.596
  O     -807.890     305.440     448.991
  H     -807.358     304.511     447.246
  H     -807.847     306.212     447.076
  H     -809.079     304.945     447.375
  P     -808.794     306.571     449.685
  C     -809.335     309.054     449.174
  O     -808.764     307.840     448.705
  C     -808.659     310.252     448.513
  O     -807.311     310.416     449.010
  C     -808.560     310.165     446.996
  O     -809.764     310.598     446.385
  C     -807.393     311.104     446.721
  O     -807.818     312.482     446.741
  C     -806.457     310.805     447.898
  N     -801.620     309.929     446.739
  C     -802.311     311.118     446.834
  N     -801.618     312.252     446.556
  N     -803.572     311.202     447.169
  C     -804.153     309.994     447.362
  C     -803.579     308.745     447.294
  C     -802.165     308.674     446.978
  O     -801.478     307.656     446.958
  N     -804.492     307.759     447.578
  C     -805.623     308.415     447.780
  N     -805.467     309.767     447.657
  O     -807.904     307.047     450.930
  O     -810.145     306.128     450.132
  H     -808.227     312.678     447.600
  H     -808.493     307.229     451.689
  H     -800.642     309.929     446.508
  H     -806.569     307.951     448.027
  H     -805.902     311.693     448.218
  H     -806.967     310.932     445.732
  H     -800.761     312.228     446.028
  H     -808.296     309.150     446.676
  H     -802.147     313.114     446.553
  H     -809.218     311.150     448.812
  H     -809.205     309.110     450.259
  H     -810.404     309.061     448.945
  P     -810.062     310.118     444.883
  C     -809.718     311.095     442.503
  O     -809.405     311.196     443.882
  O     -811.637     310.385     444.733
  O     -809.729     308.693     444.603
  H     -812.117     309.533     444.763
  H     -809.214     311.871     441.965
  H     -810.775     311.196     442.369
  H     -809.401     310.142     442.134

 6  7  8  9  10  11  12  13  14  15  26  29  33  34 0
 6-311+G(2d,p)
 ****
 36  38  39  40  41 0
 6-311+G(2d,p)
 ****
 1  2  3  4  5  16  17  18  19  20  21  22  23  24  25 0
 3-21G
 ****
 27  28  30  31  32  35  37  42  43  44  45  46  47 0
 3-21G
 ****
 48  49 0
 3-21G
 ****


