%nproc=1
%NoSave
%Mem=1900MB
#P OB98/GEN NMR

erre ene a

0 1
  C     -670.250     350.755     166.099
  O     -669.578     351.797     165.416
  P     -668.231     352.411     166.022
  C     -669.381     354.320     167.315
  O     -668.607     353.125     167.408
  C     -668.972     355.312     168.410
  O     -669.105     354.697     169.716
  C     -667.521     355.768     168.315
  O     -667.358     356.724     167.281
  C     -667.297     356.296     169.727
  O     -667.807     357.637     169.852
  C     -668.128     355.318     170.575
  N     -665.922     353.884     174.952
  C     -666.521     355.030     174.573
  N     -667.059     355.354     173.376
  C     -666.891     354.348     172.504
  C     -666.261     353.135     172.725
  C     -665.780     352.902     174.025
  N     -665.216     351.703     174.434
  N     -666.263     352.375     171.567
  C     -666.863     353.116     170.678
  N     -667.315     354.291     171.205
  O     -667.428     353.251     165.080
  O     -667.401     351.128     166.494
  H     -668.709     357.636     169.480
  H     -666.555     351.101     166.006
  H     -666.605     355.795     175.345
  H     -667.015     352.848     169.639
  H     -668.679     355.835     171.369
  H     -666.232     356.333     169.995
  H     -666.866     354.906     168.141
  H     -669.656     356.171     168.356
  H     -670.440     354.063     167.430
  H     -665.041     351.609     175.426
  H     -665.380     350.872     173.862
  H     -669.237     354.766     166.325
  P     -666.034     356.707     166.387
  C     -664.816     358.729     167.402
  O     -664.852     357.318     167.285
  O     -666.174     357.313     165.026
  O     -665.647     355.155     166.304
  H     -665.233     354.970     165.449
  H     -664.394     359.166     166.505
  H     -664.179     358.993     168.257
  H     -665.824     359.136     167.566
  H     -671.124     350.474     165.549
  H     -670.535     351.093     167.073
  H     -669.599     349.911     166.191

 3  4  5  6  7  8  9  10  11  12  22  25  29  30  31  32 0
 6-311+G(2d,p)
 ****
 33  36  37 0
 6-311+G(2d,p)
 ****
 1  2  13  14  15  16  17  18  19  20  21  23  24  26 0
 3-21G
 ****
 27  28  34  35  38  39  40  41  42  43  44  45  46  47  48 0
 3-21G
 ****


