%nproc=1
%NoSave
%Mem=1900MB
#P OB98/GEN NMR

erre ene a

0 1
  C     -191.713     -86.808     375.288
  O     -193.041     -86.529     374.909
  H     -191.132     -85.883     375.251
  H     -191.269     -87.523     374.590
  H     -191.669     -87.204     376.307
  P     -194.171     -87.641     375.143
  C     -195.698     -89.050     373.610
  O     -194.590     -88.162     373.683
  C     -195.572     -89.944     372.374
  O     -195.913     -89.150     371.197
  C     -194.150     -90.505     372.162
  O     -194.257     -91.814     371.585
  C     -193.592     -89.531     371.141
  O     -192.486     -90.063     370.457
  C     -194.822     -89.278     370.273
  N     -194.647     -88.093     369.439
  C     -193.834     -88.225     368.316
  O     -193.255     -89.268     368.014
  N     -193.633     -87.087     367.581
  C     -194.071     -85.838     367.911
  O     -193.803     -84.842     367.257
  C     -194.889     -85.749     369.134
  C     -195.141     -86.864     369.827
  O     -195.318     -87.240     376.015
  O     -193.371     -88.899     375.731
  H     -192.264     -89.500     369.690
  H     -193.979     -89.495     376.207
  H     -193.056     -87.166     366.760
  H     -195.241     -84.769     369.437
  H     -195.721     -86.834     370.743
  H     -195.031     -90.145     369.630
  H     -193.265     -88.612     371.640
  H     -193.563     -90.550     373.079
  H     -196.307     -90.756     372.437
  H     -196.614     -88.455     373.547
  H     -195.732     -89.667     374.518
  P     -193.420     -93.060     372.156
  C     -191.318     -94.425     371.587
  O     -192.307     -93.531     371.091
  O     -194.268     -94.179     372.672
  O     -192.551     -92.439     373.349
  H     -192.608     -93.026     374.125
  H     -190.634     -94.671     370.802
  H     -191.790     -95.317     371.942
  H     -190.786     -93.959     372.390

 6  7  8  9  10  11  12  13  14  15  16  26  31  32  33  34  35 0
 6-311+G(2d,p)
 ****
 36  37 0
 6-311+G(2d,p)
 ****
 1  2  3  4  5  17  18  19  20  21  22  23  24  25 0
 3-21G
 ****
 27  28  29  30  38  39  40  41  42  43  44  45 0
 3-21G
 ****


