%nproc=1
%NoSave
%Mem=1900MB
#P OB98/GEN NMR

erre ene a

0 1
  C     -647.464     305.444     347.161
  O     -646.059     305.682     347.242
  P     -645.221     305.638     345.875
  C     -643.686     307.599     346.694
  O     -643.784     306.260     346.230
  C     -642.220     308.006     346.839
  O     -641.572     307.209     347.866
  C     -641.390     307.793     345.578
  O     -641.668     308.778     344.600
  C     -639.986     307.836     346.154
  O     -639.564     309.198     346.359
  C     -640.171     307.144     347.519
  N     -639.682     305.767     347.541
  C     -638.327     305.615     347.845
  O     -637.570     306.560     348.062
  N     -637.865     304.329     347.872
  C     -638.596     303.213     347.609
  O     -638.130     302.072     347.661
  C     -640.005     303.438     347.236
  C     -640.475     304.684     347.229
  O     -645.947     306.781     345.032
  O     -645.200     304.288     345.242
  H     -646.259     307.527     345.578
  H     -640.216     309.604     346.964
  H     -636.890     304.189     348.109
  H     -640.611     302.568     346.995
  H     -641.510     304.884     346.956
  H     -639.641     307.704     348.306
  H     -639.243     307.357     345.499
  H     -641.584     306.801     345.165
  H     -642.183     309.055     347.146
  H     -644.179     307.699     347.666
  H     -644.206     308.257     345.992
  P     -642.535     308.316     343.329
  C     -643.003     310.869     342.997
  O     -642.720     309.620     342.409
  O     -643.971     308.093     343.995
  O     -641.979     307.115     342.638
  H     -644.224     308.806     344.603
  H     -642.751     311.661     342.282
  H     -642.406     311.025     343.905
  H     -644.070     310.937     343.238
  H     -647.893     305.503     348.140
  H     -647.638     304.470     346.754
  H     -647.915     306.180     346.529

 3  4  5  6  7  8  9  10  11  12  13  24  28  29  30  31  32 0
 6-311+G(2d,p)
 ****
 33  34 0
 6-311+G(2d,p)
 ****
 1  2  14  15  16  17  18  19  20  21  22  23  25  26  27 0
 3-21G
 ****
 35  36  37  38  39  40  41  42  43  44  45 0
 3-21G
 ****


