%nproc=1
%NoSave
%Mem=1900MB
#P OB98/GEN NMR

erre ene a

0 1
  C      -99.755     -74.383     462.107
  O      -98.794     -74.926     461.225
  H      -99.675     -74.893     463.070
  H     -100.762     -74.539     461.714
  H      -99.581     -73.312     462.263
  P      -98.576     -74.230     459.798
  C     -100.177     -76.070     458.938
  O      -99.003     -75.306     458.687
  C     -100.871     -76.442     457.621
  O     -101.257     -75.214     456.939
  C      -99.983     -77.241     456.641
  O     -100.860     -78.084     455.876
  C      -99.410     -76.120     455.789
  O      -98.769     -76.593     454.638
  C     -100.677     -75.271     455.614
  N     -100.459     -73.927     455.088
  C     -101.460     -73.382     454.289
  O     -102.510     -73.941     453.996
  N     -101.207     -72.121     453.809
  C     -100.100     -71.367     454.055
  O      -99.941     -70.233     453.625
  C      -99.074     -72.003     454.901
  C      -99.304     -73.237     455.379
  O      -97.246     -73.594     459.584
  O      -99.764     -73.152     459.718
  H      -99.414     -72.264     459.914
  H      -97.938     -77.040     454.895
  H     -101.918     -71.705     453.234
  H      -98.173     -71.447     455.112
  H      -98.572     -73.724     456.014
  H     -101.395     -75.796     454.976
  H      -98.649     -75.578     456.358
  H      -99.235     -77.857     457.150
  H     -101.797     -76.984     457.851
  H     -100.852     -75.467     459.555
  H      -99.908     -76.976     459.488
  P     -101.320     -79.548     456.352
  C      -99.711     -80.642     454.639
  O     -101.036     -80.574     455.150
  O     -102.717     -79.602     456.882
  O     -100.259     -79.980     457.474
  H     -100.672     -80.621     458.085
  H      -99.670     -81.362     453.848
  H      -99.042     -80.933     455.421
  H      -99.424     -79.682     454.263

 6  7  8  9  10  11  12  13  14  15  16  27  31  32  33  34  35 0
 6-311+G(2d,p)
 ****
 36  37 0
 6-311+G(2d,p)
 ****
 1  2  3  4  5  17  18  19  20  21  22  23  24  25 0
 3-21G
 ****
 26  28  29  30  38  39  40  41  42  43  44  45 0
 3-21G
 ****


