%nproc=1
%NoSave
%Mem=1900MB
#P OB98/GEN NMR

erre ene a

0 1
  C      492.041      -5.890     422.428
  O      491.052      -4.963     422.831
  H      492.099      -6.685     423.177
  H      493.016      -5.400     422.368
  H      491.786      -6.337     421.463
  P      490.693      -3.743     421.856
  C      491.973      -2.197     423.467
  O      491.799      -2.604     422.116
  C      492.870      -0.963     423.543
  O      492.310       0.072     422.691
  C      493.006      -0.386     424.956
  O      494.341       0.081     425.129
  C      492.050       0.793     424.947
  O      492.424       1.799     425.885
  C      492.136       1.255     423.491
  N      489.259       5.287     424.472
  C      490.462       4.896     425.026
  N      490.966       5.679     426.005
  N      491.115       3.826     424.652
  C      490.503       3.141     423.653
  C      489.310       3.428     423.026
  C      488.590       4.609     423.458
  O      487.515       4.999     423.014
  N      489.010       2.480     422.082
  C      490.012       1.620     422.139
  N      490.938       1.978     423.086
  O      489.281      -3.257     421.926
  O      491.062      -4.288     420.400
  H      491.729       2.494     425.853
  H      490.262      -4.580     419.928
  H      488.792       6.116     424.803
  H      490.112       0.735     421.530
  H      492.986       1.924     423.314
  H      491.034       0.450     425.194
  H      490.526       6.526     426.329
  H      492.756      -1.109     425.736
  H      491.856       5.422     426.409
  H      493.852      -1.220     423.127
  H      492.433      -3.025     424.017
  H      490.996      -1.981     423.910
  P      495.421      -0.902     425.798
  C      495.325      -0.053     428.227
  O      495.017      -1.120     427.335
  O      496.853      -0.553     425.555
  O      495.059      -2.325     425.142
  H      495.874      -2.859     425.080
  H      495.011      -0.313     429.216
  H      494.815       0.834     427.912
  H      496.381       0.122     428.223

 6  7  8  9  10  11  12  13  14  15  26  29  33  34 0
 6-311+G(2d,p)
 ****
 36  38  39  40  41 0
 6-311+G(2d,p)
 ****
 1  2  3  4  5  16  17  18  19  20  21  22  23  24  25 0
 3-21G
 ****
 27  28  30  31  32  35  37  42  43  44  45  46  47 0
 3-21G
 ****
 48  49 0
 3-21G
 ****


