%nproc=1
%NoSave
%Mem=1900MB
#P OB98/GEN NMR

erre ene a

0 1
  C       62.754    -342.493     -13.016
  O       62.711    -343.812     -12.465
  P       62.698    -343.945     -10.867
  C       65.204    -344.644     -10.680
  O       64.190    -343.708     -10.324
  C       66.572    -344.144     -10.207
  O       66.652    -344.137      -8.771
  C       67.723    -345.028     -10.668
  O       68.040    -344.769     -12.027
  C       68.832    -344.633      -9.693
  O       69.611    -343.533     -10.191
  C       68.050    -344.220      -8.419
  N       68.261    -345.128      -7.307
  C       69.400    -344.885      -6.529
  O       70.158    -343.961      -6.809
  N       69.649    -345.710      -5.461
  C       68.860    -346.708      -5.219
  N       69.164    -347.497      -4.150
  C       67.665    -347.018      -6.039
  C       67.429    -346.198      -7.056
  O       62.464    -345.513     -10.628
  O       61.644    -343.118     -10.196
  H       68.980    -342.788     -10.288
  H       61.945    -345.661      -9.811
  H       67.040    -347.869      -5.793
  H       66.577    -346.347      -7.710
  H       68.354    -343.209      -8.103
  H       69.527    -345.460      -9.522
  H       67.467    -346.083     -10.526
  H       66.714    -343.119     -10.572
  H       69.990    -347.256      -3.611
  H       65.217    -344.787     -11.763
  H       68.621    -348.306      -3.870
  H       64.963    -345.618     -10.232
  P       67.532    -345.816     -13.120
  C       69.747    -347.109     -13.218
  O       68.382    -347.152     -12.847
  O       68.204    -345.261     -14.460
  O       66.057    -345.995     -13.260
  H       67.886    -345.769     -15.231
  H       70.253    -347.980     -12.801
  H       70.224    -346.202     -12.824
  H       69.844    -347.131     -14.308
  H       62.758    -342.553     -14.084
  H       63.641    -341.996     -12.683
  H       61.895    -341.943     -12.693

 3  4  5  6  7  8  9  10  11  12  13  21  23  27  28  29  30  32 0
 6-311+G(2d,p)
 ****
 34  35 0
 6-311+G(2d,p)
 ****
 1  2  14  15  16  17  18  19  20  22  24  25  26 0
 3-21G
 ****
 31  33  36  37  38  39  40  41  42  43  44  45  46 0
 3-21G
 ****


