%nproc=1
%NoSave
%Mem=1900MB
#P OB98/GEN NMR

erre ene a

0 1
  C        6.678     -31.779      26.284
  O        6.803     -32.422      27.541
  P        7.226     -31.591      28.846
  C        9.680     -32.251      28.455
  O        8.765     -31.178      28.645
  C       11.109     -31.725      28.333
  O       11.147     -30.714      27.299
  C       11.632     -31.089      29.617
  O       13.026     -31.381      29.743
  C       11.477     -29.595      29.386
  O       12.418     -28.845      30.172
  C       11.679     -29.502      27.870
  N       11.827     -24.449      26.967
  C       12.712     -25.282      27.557
  N       12.597     -26.609      27.788
  C       11.443     -27.075      27.283
  C       10.445     -26.348      26.651
  C       10.668     -24.969      26.500
  N        9.769     -24.123      25.886
  N        9.390     -27.170      26.299
  C        9.757     -28.369      26.693
  N       10.993     -28.367      27.283
  O        6.927     -32.259      30.144
  O        6.456     -30.198      28.702
  H       12.206     -29.015      31.113
  H        6.142     -29.892      29.575
  H       13.637     -24.820      27.895
  H        9.165     -29.265      26.585
  H       12.742     -29.440      27.607
  H       10.468     -29.280      29.678
  H       11.096     -31.428      30.510
  H       11.760     -32.548      28.014
  H        9.410     -32.774      27.532
  H       10.068     -23.176      25.714
  H        8.992     -24.535      25.387
  H        9.595     -32.955      29.290
  P       13.650     -31.206      31.219
  C       14.775     -28.950      30.569
  O       13.852     -29.628      31.391
  O       14.847     -32.076      31.425
  O       12.389     -31.574      32.134
  H       11.542     -31.416      31.662
  H       14.799     -27.897      30.861
  H       14.465     -29.011      29.522
  H       15.777     -29.373      30.687
  H        6.390     -32.496      25.544
  H        7.616     -31.342      26.012
  H        5.933     -31.013      26.348

 3  4  5  6  7  8  9  10  11  12  22  25  29  30  31  32 0
 6-311+G(2d,p)
 ****
 33  36  37 0
 6-311+G(2d,p)
 ****
 1  2  13  14  15  16  17  18  19  20  21  23  24  26 0
 3-21G
 ****
 27  28  34  35  38  39  40  41  42  43  44  45  46  47  48 0
 3-21G
 ****


