%nproc=1
%NoSave
%Mem=1900MB
#P OB98/GEN NMR

erre ene a

0 1
  C      126.667    -183.264     164.760
  O      125.734    -183.047     165.802
  H      126.348    -184.131     164.174
  H      127.657    -183.467     165.179
  H      126.712    -182.390     164.107
  P      126.009    -181.787     166.759
  C      123.582    -181.848     167.704
  O      124.972    -181.926     167.977
  C      122.785    -182.576     168.799
  O      123.124    -183.993     168.761
  C      123.100    -182.081     170.225
  O      121.927    -182.247     171.039
  C      124.162    -183.070     170.674
  O      124.319    -183.031     172.069
  C      123.582    -184.354     170.081
  N      124.664    -189.055     171.743
  C      123.580    -188.268     171.911
  N      123.364    -187.027     171.430
  C      124.408    -186.623     170.676
  C      125.575    -187.312     170.412
  C      125.696    -188.588     170.993
  N      126.805    -189.390     170.837
  N      126.419    -186.557     169.618
  C      125.761    -185.433     169.400
  N      124.544    -185.431     170.019
  O      125.441    -180.555     165.911
  O      127.432    -181.581     167.166
  H      124.600    -182.142     172.370
  H      126.156    -180.155     165.380
  H      122.780    -188.685     172.522
  H      126.124    -184.592     168.816
  H      122.715    -184.713     170.654
  H      125.134    -182.833     170.226
  H      123.425    -181.034     170.260
  H      121.711    -182.503     168.578
  H      123.388    -182.319     166.733
  H      123.275    -180.798     167.671
  H      126.818    -190.276     171.309
  H      127.590    -189.040     170.310
  P      120.913    -181.006     171.215
  C      118.700    -182.119     170.390
  O      119.413    -181.540     171.470
  O      120.820    -180.438     169.719
  O      121.365    -179.935     172.151
  H      120.908    -179.465     169.732
  H      117.729    -182.419     170.724
  H      119.233    -182.974     170.028
  H      118.601    -181.401     169.603

 6  7  8  9  10  11  12  13  14  15  25  28  32  33  34  35 0
 6-311+G(2d,p)
 ****
 36  37  40 0
 6-311+G(2d,p)
 ****
 1  2  3  4  5  16  17  18  19  20  21  22  23  24 0
 3-21G
 ****
 26  27  29  30  31  38  39 41  42  43  44  45  46  47  48 0
 3-21G
 ****


