%nproc=1
%NoSave
%Mem=1900MB
#P OB98/GEN NMR

erre ene a

0 1
  C      -36.216     223.797     290.250
  O      -37.418     224.519     290.426
  P      -37.720     225.853     289.611
  C      -39.587     224.814     288.148
  O      -39.265     225.785     289.147
  C      -41.093     224.781     287.922
  O      -41.745     224.188     289.091
  C      -41.705     226.196     287.704
  O      -42.494     226.330     286.521
  C      -42.447     226.441     289.010
  O      -43.459     227.433     288.923
  C      -42.887     225.025     289.393
  N      -43.297     224.918     290.793
  C      -44.614     225.265     291.098
  O      -45.444     225.635     290.282
  N      -44.942     225.227     292.434
  C      -44.085     225.015     293.459
  O      -44.425     225.089     294.645
  C      -42.698     224.695     293.084
  C      -42.370     224.638     291.788
  O      -36.767     226.148     288.493
  O      -37.762     226.981     290.739
  H      -43.719     227.663     289.830
  H      -38.433     226.843     291.427
  H      -45.901     225.475     292.655
  H      -41.993     224.528     293.877
  H      -41.352     224.400     291.474
  H      -43.719     224.686     288.776
  H      -41.710     226.806     289.751
  H      -40.921     226.942     287.584
  H      -41.294     224.143     287.049
  H      -39.256     223.835     288.499
  H      -39.038     225.046     287.225
  P      -42.278     227.447     285.396
  C      -43.076     226.037     283.342
  O      -43.300     227.148     284.193
  O      -40.858     227.654     284.975
  O      -42.873     228.773     286.066
  H      -42.412     229.559     285.698
  H      -43.497     226.256     282.358
  H      -43.583     225.160     283.762
  H      -42.010     225.818     283.237
  H      -36.218     222.940     290.890
  H      -35.384     224.424     290.496
  H      -36.136     223.481     289.231

 3  4  5  6  7  8  9  10  11  12  13  23  28  29  30  31  32 0
 6-311+G(2d,p)
 ****
 33  34 0
 6-311+G(2d,p)
 ****
 1  2  14  15  16  17  18  19  20  21  22  24  25  26  27 0
 3-21G
 ****
 35  36  37  38  39  40  41  42  43  44  45 0
 3-21G
 ****


