%nproc=1
%NoSave
%Mem=1900MB
#P OB98/GEN NMR

erre ene a

0 1
  C       -2.706    -897.310     -32.978
  O       -2.516    -895.920     -32.822
  H       -1.746    -897.760     -33.235
  H       -3.413    -897.490     -33.798
  H       -3.082    -897.770     -32.060
  P       -3.613    -895.080     -32.017
  C       -2.058    -893.890     -30.328
  O       -3.080    -894.860     -30.511
  C       -1.022    -894.340     -29.300
  O       -0.370    -895.530     -29.766
  C        0.067    -893.280     -29.070
  O       -0.247    -892.310     -28.088
  C        1.242    -894.160     -28.628
  O        1.238    -894.360     -27.203
  C        1.012    -895.480     -29.373
  N        4.536    -898.310     -31.752
  C        4.044    -898.450     -30.465
  N        4.588    -899.430     -29.721
  N        3.121    -897.660     -29.959
  C        2.750    -896.660     -30.794
  C        3.176    -896.430     -32.074
  C        4.145    -897.330     -32.657
  O        4.598    -897.270     -33.788
  N        2.593    -895.290     -32.604
  C        1.896    -894.810     -31.607
  N        1.886    -895.640     -30.518
  O       -4.809    -896.130     -31.808
  O       -4.111    -893.840     -32.700
  H        1.862    -895.070     -26.987
  H       -5.658    -895.660     -31.793
  H        5.231    -898.960     -32.084
  H        1.334    -893.870     -31.626
  H        1.188    -896.330     -28.704
  H        2.195    -893.670     -28.866
  H        5.370    -900.000     -30.018
  H        0.338    -892.810     -30.015
  H        4.403    -899.430     -28.713
  H       -1.528    -894.590     -28.356
  H       -2.569    -892.980     -29.979
  H       -1.579    -893.650     -31.282
  P       -0.134    -890.750     -28.412
  C       -2.644    -889.990     -28.207
  O       -1.519    -890.270     -29.030
  O        0.864    -890.720     -29.672
  O        0.346    -889.890     -27.286
  H        1.758    -890.500     -29.387
  H       -3.467    -889.685     -28.819
  H       -2.398    -889.205     -27.522
  H       -2.914    -890.869     -27.660

 6  7  8  9  10  11  12  13  14  15  26  29  33  34 0
 6-311+G(2d,p)
 ****
 36  38  39  40  41 0
 6-311+G(2d,p)
 ****
 1  2  3  4  5  16  17  18  19  20  21  22  23  24  25 0
 3-21G
 ****
 27  28  30  31  32  35  37  42  43  44  45  46  47 0
 3-21G
 ****
 48  49 0
 3-21G
 ****


