%nproc=1
%NoSave
%Mem=1900MB
#P OB98/GEN NMR

erre ene a

0 1
  C      -55.360     -92.463    -541.110
  O      -56.066     -92.716    -542.312
  H      -55.784     -91.574    -540.638
  H      -54.304     -92.280    -541.327
  H      -55.463     -93.312    -540.429
  P      -55.607     -94.004    -543.153
  C      -57.932     -95.144    -543.082
  O      -56.581     -95.173    -542.645
  C      -58.352     -96.509    -543.625
  O      -57.622     -96.826    -544.826
  C      -58.090     -97.669    -542.667
  O      -59.114     -97.756    -541.691
  C      -58.123     -98.844    -543.628
  O      -59.493     -99.196    -543.921
  C      -57.452     -98.268    -544.891
  N      -54.004    -101.755    -546.404
  C      -55.339    -101.831    -546.239
  N      -56.187    -100.874    -545.792
  C      -55.523     -99.745    -545.503
  C      -54.157     -99.521    -545.620
  C      -53.383    -100.586    -546.109
  N      -52.016    -100.503    -546.282
  N      -53.837     -98.240    -545.231
  C      -54.996     -97.679    -544.928
  N      -56.040     -98.562    -545.045
  O      -54.148     -94.300    -543.136
  O      -56.216     -93.659    -544.598
  H      -59.486    -100.067    -544.352
  H      -57.089     -93.235    -544.506
  H      -55.795    -102.780    -546.500
  H      -55.129     -96.648    -544.646
  H      -57.947     -98.613    -545.806
  H      -57.646     -99.733    -543.212
  H      -57.095     -97.600    -542.217
  H      -59.415     -96.454    -543.892
  H      -58.062     -94.382    -543.860
  H      -51.520    -101.360    -546.469
  H      -51.546     -99.678    -545.947
  H      -58.550     -94.869    -542.229
  P      -58.971     -98.759    -540.446
  C      -57.170     -97.271    -539.369
  O      -57.483     -98.566    -539.871
  O      -59.344    -100.174    -540.725
  O      -59.886     -98.115    -539.302
  H      -60.346     -98.816    -538.803
  H      -56.160     -97.260    -539.015
  H      -57.833     -97.031    -538.564
  H      -57.282     -96.549    -540.151

 6  7  8  9  10  11  12  13  14  15  25  28  32  33  34  35 0
 6-311+G(2d,p)
 ****
 36  39  40 0
 6-311+G(2d,p)
 ****
 1  2  3  4  5  16  17  18  19  20  21  22  23  24 0
 3-21G
 ****
 26  27  29  30  31  37  38  41  42  43  44  45  46  47 0
 3-21G
 ****
 48 0
 3-21G
 ****


