%nproc=1
%NoSave
%Mem=1900MB
#P OB98/GEN NMR

erre ene a

0 1
  C     -369.345     714.603    -547.186
  O     -369.777     715.801    -546.582
  P     -369.328     717.236    -547.130
  C     -371.804     717.903    -547.348
  O     -370.560     717.737    -548.031
  C     -371.863     719.320    -546.755
  O     -371.908     720.271    -547.846
  C     -373.127     719.620    -545.927
  O     -373.042     719.200    -544.569
  C     -373.152     721.144    -545.987
  O     -372.179     721.690    -545.055
  C     -372.694     721.417    -547.428
  N     -375.944     724.826    -549.416
  C     -374.913     724.953    -548.550
  N     -374.109     723.997    -548.056
  C     -374.418     722.804    -548.580
  C     -375.449     722.507    -549.474
  C     -376.231     723.601    -549.886
  N     -377.276     723.464    -550.793
  N     -375.467     721.171    -549.749
  C     -374.465     720.651    -549.061
  N     -373.811     721.599    -548.335
  O     -367.999     717.246    -547.801
  O     -369.392     718.196    -545.853
  H     -372.568     721.608    -544.161
  H     -368.884     719.015    -546.018
  H     -374.705     725.982    -548.204
  H     -374.221     719.600    -549.053
  H     -372.039     722.305    -547.499
  H     -374.106     721.582    -545.717
  H     -374.033     719.239    -546.404
  H     -370.970     719.502    -546.170
  H     -371.847     717.183    -546.532
  H     -377.682     724.311    -551.139
  H     -377.369     722.588    -551.279
  H     -372.629     717.721    -548.028
  P     -374.371     718.595    -543.888
  C     -373.073     716.375    -543.419
  O     -374.195     717.003    -544.007
  O     -375.658     719.126    -544.443
  O     -374.160     718.897    -542.341
  H     -373.429     718.411    -541.919
  H     -373.195     715.290    -543.452
  H     -372.936     716.680    -542.377
  H     -372.156     716.616    -543.981
  H     -369.762     713.769    -546.662
  H     -368.277     714.550    -547.149
  H     -369.668     714.581    -548.206

 3  4  5  6  7  8  9  10  11  12  22  25  29  30  31  32 0
 6-311+G(2d,p)
 ****
 33  36  37 0
 6-311+G(2d,p)
 ****
 1  2  13  14  15  16  17  18  19  20  21  23  24  26 0
 3-21G
 ****
 27  28  34  35  38  39  40  41  42  43  44  45  46  47  48 0
 3-21G
 ****


