%nproc=1
%NoSave
%Mem=1900MB
#P OB98/GEN NMR

erre ene a

0 1
  C     -572.028    -681.059    -322.528
  O     -573.422    -680.977    -322.733
  H     -571.709    -682.086    -322.737
  H     -571.798    -680.827    -321.489
  H     -571.482    -680.388    -323.193
  P     -574.109    -679.527    -322.787
  C     -575.068    -679.440    -325.180
  O     -574.021    -679.033    -324.309
  C     -574.500    -680.084    -326.452
  O     -573.663    -681.216    -326.082
  C     -575.591    -680.596    -327.428
  O     -575.056    -680.467    -328.751
  C     -575.682    -682.055    -327.031
  O     -576.304    -682.825    -328.032
  C     -574.209    -682.375    -326.760
  N     -574.031    -683.595    -325.963
  C     -574.391    -684.790    -326.572
  O     -574.863    -684.855    -327.710
  N     -574.241    -685.926    -325.825
  C     -573.840    -685.960    -324.514
  O     -573.752    -687.007    -323.869
  C     -573.511    -684.658    -323.912
  C     -573.621    -683.559    -324.635
  O     -573.615    -678.538    -321.781
  O     -575.678    -679.817    -322.615
  H     -576.240    -683.781    -327.815
  H     -576.109    -679.073    -322.165
  H     -574.489    -686.806    -326.248
  H     -573.195    -684.653    -322.870
  H     -573.390    -682.584    -324.226
  H     -573.657    -682.502    -327.693
  H     -576.269    -682.170    -326.108
  H     -576.533    -680.064    -327.343
  H     -573.844    -679.347    -326.945
  H     -575.657    -678.561    -325.442
  H     -575.708    -680.165    -324.657
  P     -575.600    -679.384    -329.792
  C     -573.296    -678.703    -330.711
  O     -574.480    -678.269    -330.037
  O     -576.944    -678.822    -329.458
  O     -575.668    -680.164    -331.198
  H     -576.367    -679.777    -331.762
  H     -572.624    -677.878    -330.818
  H     -573.554    -679.080    -331.678
  H     -572.824    -679.476    -330.141

 6  7  8  9  10  11  12  13  14  15  16  26  31  32  33  34  35 0
 6-311+G(2d,p)
 ****
 36  37 0
 6-311+G(2d,p)
 ****
 1  2  3  4  5  17  18  19  20  21  22  23  24  25 0
 3-21G
 ****
 27  28  29  30  38  39  40  41  42  43  44  45 0
 3-21G
 ****


