%nproc=1
%NoSave
%Mem=1900MB
#P OB98/GEN NMR

erre ene a

0 1
  C       42.098     -36.479     130.544
  O       41.529     -37.772     130.512
  H       41.666     -35.889     129.731
  H       43.179     -36.538     130.395
  H       41.879     -35.982     131.492
  P       41.891     -38.805     131.683
  C       41.706     -38.803     134.252
  O       41.718     -38.017     133.068
  C       42.082     -37.939     135.453
  O       43.453     -37.498     135.343
  C       41.247     -36.671     135.587
  O       39.959     -36.966     136.089
  C       42.133     -35.852     136.513
  O       41.983     -36.275     137.877
  C       43.544     -36.207     135.987
  N       44.080     -35.198     135.073
  C       44.888     -34.221     135.644
  O       45.151     -34.179     136.844
  N       45.352     -33.257     134.788
  C       45.016     -33.131     133.471
  O       45.274     -32.136     132.800
  C       44.222     -34.232     132.907
  C       43.783     -35.192     133.724
  O       43.183     -39.534     131.526
  O       40.646     -39.814     131.690
  H       40.895     -40.637     131.227
  H       41.029     -36.432     138.014
  H       45.900     -32.516     135.200
  H       43.988     -34.203     131.850
  H       43.171     -35.998     133.336
  H       44.247     -36.318     136.822
  H       41.897     -34.787     136.481
  H       41.181     -36.161     134.619
  H       41.998     -38.557     136.358
  H       42.437     -39.611     134.142
  H       40.710     -39.239     134.383
  P       38.746     -35.941     135.906
  C       37.238     -35.223     133.962
  O       38.519     -35.712     134.336
  O       38.852     -34.684     136.706
  O       37.451     -36.782     136.337
  H       36.958     -36.283     137.017
  H       37.197     -35.108     132.899
  H       37.067     -34.276     134.430
  H       36.486     -35.917     134.275

 6  7  8  9  10  11  12  13  14  15  16  27  31  32  33  34  35 0
 6-311+G(2d,p)
 ****
 36  37 0
 6-311+G(2d,p)
 ****
 1  2  3  4  5  17  18  19  20  21  22  23  24  25 0
 3-21G
 ****
 26  28  29  30  38  39  40  41  42  43  44  45 0
 3-21G
 ****


