%nproc=1
%NoSave
%Mem=1900MB
#P OB98/GEN NMR

erre ene a

0 1
  C      157.754      47.650      14.929
  O      158.864      47.697      14.053
  H      156.931      48.209      14.478
  H      158.008      48.106      15.890
  H      157.440      46.614      15.078
  P      160.200      46.961      14.549
  C      161.673      49.076      14.571
  O      161.393      47.840      13.925
  C      163.119      49.500      14.307
  O      163.998      48.648      15.083
  C      163.530      49.379      12.838
  O      164.381      50.471      12.498
  C      164.321      48.084      12.796
  O      165.256      48.053      11.721
  C      164.956      48.062      14.185
  N      168.659      44.558      14.343
  C      168.663      45.861      13.990
  N      167.629      46.730      13.993
  C      166.515      46.140      14.461
  C      166.358      44.823      14.853
  C      167.500      44.008      14.774
  N      167.498      42.673      15.106
  N      165.050      44.584      15.228
  C      164.433      45.741      15.079
  N      165.274      46.707      14.600
  O      160.274      45.497      14.273
  O      160.243      47.371      16.094
  H      165.934      48.741      11.882
  H      160.032      48.315      16.219
  H      169.617      46.258      13.655
  H      163.385      45.925      15.286
  H      165.884      48.645      14.233
  H      163.635      47.237      12.670
  H      162.673      49.354      12.164
  H      163.258      50.522      14.678
  H      161.511      48.982      15.650
  H      168.366      42.164      15.035
  H      166.649      42.249      15.448
  H      160.980      49.826      14.179
  P      163.707      51.856      12.054
  C      164.584      51.417       9.667
  O      164.426      52.369      10.714
  O      163.547      52.878      13.129
  O      162.275      51.382      11.508
  H      161.604      52.047      11.757
  H      165.073      51.879       8.835
  H      163.623      51.060       9.362
  H      165.175      50.596      10.017

 6  7  8  9  10  11  12  13  14  15  25  28  32  33  34  35 0
 6-311+G(2d,p)
 ****
 36  39  40 0
 6-311+G(2d,p)
 ****
 1  2  3  4  5  16  17  18  19  20  21  22  23  24 0
 3-21G
 ****
 26  27  29  30  31  37  38  41  42  43  44  45  46  47 0
 3-21G
 ****
 48 0
 3-21G
 ****


