%nproc=1
%NoSave
%Mem=1900MB
#P OB98/GEN NMR

erre ene a

0 1
  C     -241.011    -595.189    -127.045
  O     -240.084    -596.139    -126.518
  P     -238.595    -595.610    -126.204
  C     -238.118    -596.134    -123.700
  O     -238.552    -595.181    -124.657
  C     -239.274    -596.548    -122.791
  O     -240.335    -597.152    -123.537
  C     -238.890    -597.577    -121.736
  O     -238.235    -596.984    -120.626
  C     -240.263    -598.097    -121.320
  O     -240.860    -597.209    -120.361
  C     -241.043    -598.056    -122.653
  N     -243.281    -602.607    -122.543
  C     -243.432    -601.528    -121.693
  N     -244.322    -601.669    -120.692
  N     -242.765    -600.404    -121.820
  C     -241.926    -600.394    -122.888
  C     -241.693    -601.403    -123.795
  C     -242.414    -602.645    -123.627
  O     -242.289    -603.647    -124.330
  N     -240.781    -601.012    -124.744
  C     -240.489    -599.766    -124.427
  N     -241.148    -599.345    -123.298
  O     -238.552    -594.206    -126.980
  O     -237.519    -596.531    -126.664
  H     -241.729    -597.594    -120.118
  H     -237.634    -593.988    -127.233
  H     -243.812    -603.442    -122.395
  H     -239.814    -599.123    -124.985
  H     -242.049    -597.656    -122.516
  H     -240.219    -599.096    -120.856
  H     -244.920    -602.471    -120.575
  H     -238.299    -598.390    -122.168
  H     -244.471    -600.867    -120.082
  H     -239.661    -595.641    -122.297
  H     -237.309    -595.713    -123.100
  H     -237.701    -597.006    -124.228
  P     -236.627    -597.019    -120.624
  C     -236.428    -594.428    -120.527
  O     -236.168    -595.614    -121.250
  O     -236.284    -598.087    -121.763
  O     -236.015    -597.376    -119.311
  H     -235.433    -598.521    -121.570
  H     -236.201    -594.548    -119.466
  H     -237.479    -594.143    -120.653
  H     -235.798    -593.625    -120.922
  H     -241.955    -595.665    -127.208
  H     -240.640    -594.806    -127.973
  H     -241.132    -594.385    -126.349

 3  4  5  6  7  8  9  10  11  12  23  26  30  31  33  0
 6-311+G(2d,p)
 ****
 35  36  37  38 0
 6-311+G(2d,p)
 ****
 1  2  13  14  15  16  17  18  19  20  21  22  24  25  27  28  29 0
 3-21G
 ****
 32  34  39  40  41  42  43  44  45  46  47  48  49 0
 3-21G
 ****


