%nproc=1
%NoSave
%Mem=1900MB
#P OB98/GEN NMR

erre ene a

0 1
  C     -193.497     108.810     -27.752
  O     -194.167     108.372     -26.582
  H     -193.617     109.894     -27.835
  H     -193.920     108.340     -28.643
  H     -192.431     108.581     -27.678
  P     -194.378     106.794     -26.380
  C     -196.885     107.058     -26.932
  O     -195.661     106.417     -27.274
  C     -198.066     106.100     -27.044
  O     -197.910     105.220     -28.180
  C     -198.229     105.168     -25.852
  O     -198.585     105.807     -24.647
  C     -199.136     104.088     -26.417
  O     -200.514     104.460     -26.386
  C     -198.645     104.011     -27.883
  N     -197.842     102.817     -28.139
  C     -198.539     101.694     -28.558
  O     -199.763     101.659     -28.694
  N     -197.778     100.571     -28.786
  C     -196.430     100.465     -28.595
  O     -195.813      99.428     -28.801
  C     -195.753     101.682     -28.113
  C     -196.474     102.785     -27.911
  O     -194.473     106.329     -24.957
  O     -193.165     106.136     -27.192
  H     -201.021     103.709     -26.738
  H     -193.041     105.185     -26.942
  H     -198.267      99.749     -29.108
  H     -194.688     101.626     -27.941
  H     -195.998     103.698     -27.560
  H     -199.499     103.991     -28.575
  H     -199.046     103.141     -25.874
  H     -197.260     104.685     -25.659
  H     -198.976     106.693     -27.209
  H     -197.032     107.894     -27.629
  H     -196.816     107.456     -25.913
  P     -197.859     105.540     -23.251
  C     -199.213     103.379     -22.650
  O     -197.944     103.969     -22.925
  O     -198.148     106.499     -22.148
  O     -196.303     105.710     -23.650
  H     -195.847     106.093     -22.877
  H     -199.086     102.334     -22.456
  H     -199.857     103.509     -23.494
  H     -199.648     103.851     -21.794

 6  7  8  9  10  11  12  13  14  15  16  26  31  32  33  34  35 0
 6-311+G(2d,p)
 ****
 36  37 0
 6-311+G(2d,p)
 ****
 1  2  3  4  5  17  18  19  20  21  22  23  24  25 0
 3-21G
 ****
 27  28  29  30  38  39  40  41  42  43  44  45 0
 3-21G
 ****


