%nproc=1
%NoSave
%Mem=1900MB
#P OB98/GEN NMR

erre ene a

0 1
  C      132.122     578.650    -525.766
  O      132.773     579.076    -524.589
  H      132.843     578.121    -526.396
  H      131.733     579.507    -526.323
  H      131.305     577.963    -525.524
  P      131.947     579.939    -523.519
  C      133.414     582.034    -523.842
  O      132.958     581.041    -522.931
  C      133.846     583.301    -523.072
  O      132.696     583.774    -522.321
  C      134.989     583.026    -522.078
  O      136.100     583.906    -522.248
  C      134.285     583.018    -520.718
  O      135.114     583.357    -519.629
  C      133.095     583.962    -520.950
  N      131.972     583.719    -520.044
  C      132.102     584.168    -518.731
  O      133.080     584.773    -518.274
  N      131.038     583.906    -517.910
  C      129.891     583.262    -518.259
  O      128.960     583.061    -517.478
  C      129.823     582.792    -519.651
  C      130.843     583.036    -520.471
  O      131.205     579.157    -522.489
  O      130.947     580.813    -524.423
  H      135.868     582.736    -519.620
  H      130.052     580.424    -524.387
  H      131.112     584.234    -516.953
  H      128.928     582.257    -519.956
  H      130.832     582.708    -521.499
  H      133.405     585.003    -520.822
  H      133.905     581.992    -520.534
  H      135.433     582.029    -522.261
  H      134.109     584.078    -523.797
  H      132.592     582.273    -524.529
  H      134.260     581.652    -524.419
  P      137.373     583.603    -523.155
  C      138.777     582.769    -521.096
  O      138.680     583.633    -522.237
  O      137.440     584.355    -524.447
  O      137.205     582.028    -523.515
  H      137.582     581.903    -524.421
  H      139.715     582.928    -520.607
  H      138.708     581.750    -521.414
  H      137.979     582.985    -520.416

 6  7  8  9  10  11  12  13  14  15  16  26  31  32  33  34  35 0
 6-311+G(2d,p)
 ****
 36  37 0
 6-311+G(2d,p)
 ****
 1  2  3  4  5  17  18  19  20  21  22  23  24  25 0
 3-21G
 ****
 27  28  29  30  38  39  40  41  42  43  44  45 0
 3-21G
 ****


