%nproc=1
%NoSave
%Mem=1900MB
#P OB98/GEN NMR

erre ene a

0 1
  C      -79.623     -77.765    1034.948
  O      -81.007     -78.081    1034.682
  P      -82.217     -77.425    1035.506
  C      -84.583     -76.470    1035.056
  O      -83.466     -77.199    1034.513
  C      -85.659     -76.218    1034.000
  O      -85.173     -75.357    1032.937
  C      -86.149     -77.481    1033.276
  O      -87.036     -78.228    1034.117
  C      -86.799     -76.874    1032.036
  O      -88.142     -76.421    1032.328
  C      -85.872     -75.686    1031.742
  N      -84.950     -75.963    1030.635
  C      -85.466     -75.869    1029.343
  O      -86.678     -75.622    1029.183
  N      -84.627     -76.095    1028.270
  C      -83.394     -76.452    1028.486
  N      -82.595     -76.641    1027.390
  C      -82.824     -76.655    1029.842
  C      -83.643     -76.390    1030.842
  O      -81.836     -76.213    1036.291
  O      -82.737     -78.599    1036.476
  H      -88.694     -77.219    1032.449
  H      -83.105     -78.197    1037.279
  H      -81.796     -76.975    1029.966
  H      -83.310     -76.507    1031.868
  H      -86.461     -74.790    1031.480
  H      -86.878     -77.595    1031.215
  H      -85.283     -78.099    1032.976
  H      -86.507     -75.703    1034.477
  H      -83.023     -76.484    1026.477
  H      -84.210     -75.497    1035.430
  H      -81.623     -76.925    1027.439
  H      -84.992     -77.034    1035.893
  P      -86.527     -79.613    1034.754
  C      -87.605     -81.392    1036.282
  O      -87.816     -80.388    1035.313
  O      -85.400     -79.500    1035.724
  O      -86.125     -80.510    1033.485
  H      -85.391     -81.104    1033.734
  H      -88.508     -81.550    1036.859
  H      -86.774     -81.115    1036.966
  H      -87.316     -82.334    1035.781
  H      -78.996     -78.318    1034.280
  H      -79.385     -78.026    1035.958
  H      -79.462     -76.717    1034.803

 3  4  5  6  7  8  9  10  11  12  13  23  27  28  29  30  32 0
 6-311+G(2d,p)
 ****
 34  35 0
 6-311+G(2d,p)
 ****
 1  2  14  15  16  17  18  19  20  21  22  24  25  26 0
 3-21G
 ****
 31  33  36  37  38  39  40  41  42  43  44  45  46 0
 3-21G
 ****


