%nproc=1
%NoSave
%Mem=1900MB
#P OB98/GEN NMR

erre ene a

0 1
  C     -483.661    1154.733    -658.783
  O     -483.196    1155.072    -660.071
  H     -484.278    1153.832    -658.862
  H     -484.272    1155.541    -658.379
  H     -482.817    1154.525    -658.108
  P     -482.098    1156.247    -660.154
  C     -480.536    1154.721    -661.567
  O     -481.233    1155.966    -661.481
  C     -479.565    1154.760    -662.749
  O     -480.290    1154.675    -663.999
  C     -478.707    1156.023    -662.827
  O     -477.579    1155.938    -661.971
  C     -478.291    1155.983    -664.279
  O     -477.241    1155.016    -664.462
  C     -479.571    1155.507    -664.969
  N     -480.302    1159.142    -668.431
  C     -479.249    1158.245    -668.298
  N     -478.280    1158.313    -669.223
  N     -479.199    1157.327    -667.356
  C     -480.252    1157.381    -666.512
  C     -481.331    1158.240    -666.519
  C     -481.388    1159.223    -667.595
  O     -482.298    1160.048    -667.752
  N     -482.199    1157.984    -665.511
  C     -481.652    1156.978    -664.837
  N     -480.450    1156.584    -665.407
  O     -481.094    1155.898    -658.966
  O     -482.636    1157.636    -660.018
  H     -476.877    1155.150    -665.346
  H     -480.756    1156.727    -658.565
  H     -480.294    1159.827    -669.179
  H     -482.062    1156.504    -663.962
  H     -479.377    1154.885    -665.855
  H     -477.908    1156.951    -664.642
  H     -478.247    1159.014    -669.947
  H     -479.303    1156.920    -662.628
  H     -477.535    1157.629    -669.168
  H     -478.926    1153.864    -662.681
  H     -481.264    1153.927    -661.725
  H     -479.994    1154.553    -660.638
  P     -476.759    1157.292    -661.682
  C     -476.383    1156.568    -659.214
  O     -475.803    1156.964    -660.446
  O     -477.880    1158.242    -661.036
  O     -476.137    1157.919    -662.859
  H     -477.629    1159.181    -661.133
  H     -475.609    1156.388    -658.497
  H     -476.951    1155.673    -659.359
  H     -477.026    1157.345    -658.857

 6  7  8  9  10  11  12  13  14  15  26  29  33  34 0
 6-311+G(2d,p)
 ****
 36  38  39  40  41 0
 6-311+G(2d,p)
 ****
 1  2  3  4  5  16  17  18  19  20  21  22  23  24  25 0
 3-21G
 ****
 27  28  30  31  32  35  37  42  43  44  45  46  47 0
 3-21G
 ****
 48  49 0
 3-21G
 ****


