%nproc=1
%NoSave
%Mem=1900MB
#P OB98/GEN NMR

erre ene a

0 1
  C     -124.289     466.760     -24.540
  O     -123.910     467.282     -23.265
  P     -122.518     468.077     -23.207
  C     -124.009     470.186     -23.469
  O     -122.770     469.560     -23.768
  C     -123.787     471.470     -22.664
  O     -123.299     471.207     -21.336
  C     -122.777     472.412     -23.302
  O     -123.389     473.140     -24.355
  C     -122.379     473.286     -22.120
  O     -123.318     474.364     -21.925
  C     -122.435     472.303     -20.939
  N     -120.107     469.152     -17.723
  C     -121.435     469.533     -17.781
  N     -122.262     468.975     -16.875
  N     -121.907     470.383     -18.660
  C     -120.964     470.860     -19.507
  C     -119.628     470.537     -19.561
  C     -119.115     469.600     -18.586
  O     -117.956     469.216     -18.504
  N     -118.998     471.179     -20.602
  C     -119.930     471.980     -21.089
  N     -121.153     471.777     -20.504
  O     -121.644     467.373     -24.348
  O     -121.846     468.004     -21.877
  H     -124.190     473.988     -21.701
  H     -120.925     466.854     -23.942
  H     -119.795     468.501     -17.021
  H     -119.775     472.699     -21.880
  H     -122.892     472.766     -20.056
  H     -121.404     473.756     -22.270
  H     -121.967     468.313     -16.176
  H     -121.906     471.849     -23.662
  H     -123.240     469.233     -16.909
  H     -124.759     471.972     -22.575
  H     -124.645     469.503     -22.904
  H     -124.530     470.399     -24.408
  P     -122.587     473.276     -25.736
  C     -124.474     471.629     -26.416
  O     -123.326     472.350     -26.812
  O     -121.215     472.502     -25.437
  O     -122.332     474.682     -26.168
  H     -120.469     473.023     -25.788
  H     -125.127     471.500     -27.282
  H     -125.029     472.149     -25.630
  H     -124.170     470.642     -26.049
  H     -125.228     466.254     -24.454
  H     -123.543     466.072     -24.880
  H     -124.380     467.563     -25.241

 3  4  5  6  7  8  9  10  11  12  23  26  30  31 0
 6-311+G(2d,p)
 ****
 33  35  36  37  38 0
 6-311+G(2d,p)
 ****
 1  2  13  14  15  16  17  18  19  20  21  22  24  25 0
 3-21G
 ****
 27  28  29  32  34  39  40  41  42  43  44  45  46  47  48  49 0
 3-21G
 ****


