%nproc=1
%NoSave
%Mem=1900MB
#P OB98/GEN NMR

erre ene a

0 1
  C     -127.714     276.747      52.445
  O     -127.722     275.343      52.608
  H     -126.734     277.048      52.066
  H     -127.888     277.244      53.404
  H     -128.476     277.052      51.723
  P     -129.045     274.650      53.194
  C     -130.075     274.352      55.545
  O     -129.059     274.977      54.766
  C     -130.045     274.886      56.978
  O     -130.367     276.294      56.992
  C     -131.033     274.208      57.917
  O     -130.510     272.977      58.394
  C     -131.140     275.251      59.016
  O     -129.972     275.196      59.854
  C     -131.133     276.562      58.202
  N     -135.623     278.283      59.848
  C     -134.562     277.748      60.556
  N     -134.734     277.636      61.892
  N     -133.442     277.355      60.006
  C     -133.438     277.467      58.661
  C     -134.432     277.962      57.843
  C     -135.644     278.452      58.465
  O     -136.597     278.953      57.878
  N     -134.102     277.827      56.518
  C     -132.891     277.306      56.531
  N     -132.447     277.058      57.811
  O     -129.222     273.196      52.877
  O     -130.244     275.541      52.623
  H     -129.196     275.333      59.281
  H     -130.577     275.182      51.777
  H     -136.468     278.561      60.324
  H     -132.294     277.092      55.655
  H     -130.633     277.378      58.734
  H     -132.008     275.109      59.660
  H     -135.624     277.779      62.350
  H     -132.019     274.080      57.454
  H     -133.988     277.192      62.423
  H     -129.015     274.788      57.352
  H     -129.878     273.275      55.536
  H     -131.062     274.530      55.103
  P     -131.455     271.692      58.623
  C     -133.410     271.151      60.234
  O     -132.472     272.121      59.787
  O     -130.727     270.417      58.873
  O     -132.408     271.663      57.343
  H     -132.002     271.196      56.570
  H     -134.019     271.573      61.006
  H     -132.887     270.299      60.617
  H     -134.030     270.851      59.415

 6  7  8  9  10  11  12  13  14  15  26  29  33  34 0
 6-311+G(2d,p)
 ****
 36  38  39  40  41 0
 6-311+G(2d,p)
 ****
 1  2  3  4  5  16  17  18  19  20  21  22  23  24  25 0
 3-21G
 ****
 27  28  30  31  32  35  37  42  43  44  45  46  47 0
 3-21G
 ****
 48  49 0
 3-21G
 ****


