%nproc=1
%NoSave
%Mem=1900MB
#P OB98/GEN NMR

erre ene a

0 1
  C      238.587      21.186    -278.303
  O      239.014      19.909    -277.889
  P      239.147      19.559    -276.330
  C      241.665      20.081    -276.469
  O      240.442      20.353    -275.799
  C      242.839      20.634    -275.667
  O      242.684      22.059    -275.431
  C      242.976      20.040    -274.275
  O      243.309      18.672    -274.181
  C      243.927      21.030    -273.619
  O      245.282      20.768    -273.974
  C      243.450      22.368    -274.237
  N      242.680      23.169    -273.290
  C      243.401      24.107    -272.558
  O      244.612      24.280    -272.677
  N      242.682      24.835    -271.647
  C      241.354      24.684    -271.366
  O      240.781      25.338    -270.504
  C      240.649      23.666    -272.157
  C      241.332      22.965    -273.071
  O      239.138      18.107    -276.001
  O      237.948      20.387    -275.663
  H      245.389      21.022    -274.915
  H      237.988      21.351    -275.802
  H      243.186      25.511    -271.095
  H      239.591      23.532    -271.974
  H      240.831      22.206    -273.665
  H      244.314      22.963    -274.567
  H      243.864      20.991    -272.526
  H      242.006      20.138    -273.762
  H      243.753      20.504    -276.256
  H      241.648      20.564    -277.450
  H      241.767      19.000    -276.628
  P      243.215      17.826    -272.822
  C      245.685      18.177    -272.117
  O      244.319      18.382    -271.805
  O      243.086      16.349    -272.963
  O      241.858      18.410    -272.183
  H      241.428      17.707    -271.660
  H      246.290      18.578    -271.302
  H      245.950      18.707    -273.039
  H      245.899      17.114    -272.225
  H      238.562      21.225    -279.372
  H      239.267      21.926    -277.935
  H      237.608      21.377    -277.917

 3  4  5  6  7  8  9  10  11  12  13  23  28  29  30  31  32 0
 6-311+G(2d,p)
 ****
 33  34 0
 6-311+G(2d,p)
 ****
 1  2  14  15  16  17  18  19  20  21  22  24  25  26  27 0
 3-21G
 ****
 35  36  37  38  39  40  41  42  43  44  45 0
 3-21G
 ****


