%nproc=1
%NoSave
%Mem=1900MB
#P OB98/GEN NMR

erre ene a

0 1
  C      -70.517     -29.214       5.482
  O      -70.986     -29.255       6.822
  P      -70.556     -28.049       7.793
  C      -68.456     -29.415       8.468
  O      -68.967     -28.184       7.968
  C      -66.948     -29.491       8.263
  O      -66.642     -29.394       6.860
  C      -66.161     -28.372       8.929
  O      -65.953     -28.620      10.311
  C      -64.851     -28.435       8.158
  O      -64.019     -29.477       8.700
  C      -65.321     -28.807       6.741
  N      -62.701     -25.168       4.391
  C      -62.264     -26.168       5.237
  N      -60.934     -26.220       5.468
  N      -63.057     -27.035       5.807
  C      -64.355     -26.886       5.452
  C      -64.911     -25.935       4.626
  C      -64.028     -24.949       4.042
  O      -64.367     -24.002       3.338
  N      -66.264     -26.117       4.496
  C      -66.521     -27.194       5.210
  N      -65.399     -27.680       5.835
  O      -71.123     -28.511       9.216
  O      -71.066     -26.706       7.400
  H      -63.240     -29.554       8.117
  H      -71.280     -27.729       9.781
  H      -62.045     -24.537       3.966
  H      -67.496     -27.651       5.301
  H      -64.672     -29.569       6.295
  H      -64.277     -27.505       8.214
  H      -60.263     -25.667       4.959
  H      -66.639     -27.401       8.764
  H      -60.591     -26.969       6.056
  H      -66.604     -30.470       8.619
  H      -68.929     -30.245       7.936
  H      -68.704     -29.494       9.532
  P      -66.469     -27.490      11.330
  C      -64.135     -26.353      11.234
  O      -65.532     -26.220      11.058
  O      -65.984     -28.032      12.754
  O      -67.939     -27.249      11.286
  H      -66.558     -27.679      13.462
  H      -63.786     -27.342      10.924
  H      -63.884     -26.190      12.285
  H      -63.629     -25.599      10.627
  H      -70.876     -30.072       4.952
  H      -69.447     -29.215       5.478
  H      -70.875     -28.325       5.006

 3  4  5  6  7  8  9  10  11  12  23  26  30  31  33  0
 6-311+G(2d,p)
 ****
 35  36  37  38 0
 6-311+G(2d,p)
 ****
 1  2  13  14  15  16  17  18  19  20  21  22  24  25  27  28  29 0
 3-21G
 ****
 32  34  39  40  41  42  43  44  45  46  47  48  49 0
 3-21G
 ****


