%nproc=1
%NoSave
%Mem=1900MB
#P OB98/GEN NMR

erre ene a

0 1
  C       13.555    -267.408     262.151
  O       13.390    -266.556     261.037
  H       13.829    -268.405     261.791
  H       12.622    -267.478     262.717
  H       14.354    -267.032     262.795
  P       12.872    -265.063     261.345
  C       10.465    -264.570     260.455
  O       11.271    -265.228     261.425
  C       10.273    -265.467     259.238
  O        9.831    -266.788     259.634
  C        9.219    -264.972     258.243
  O        9.683    -263.913     257.422
  C        8.994    -266.248     257.454
  O       10.102    -266.472     256.564
  C        8.958    -267.294     258.590
  N        7.610    -267.538     259.110
  C        6.642    -267.958     258.183
  O        6.930    -268.115     257.000
  N        5.352    -268.173     258.623
  C        5.058    -267.995     259.879
  N        3.763    -268.213     260.247
  C        6.047    -267.560     260.884
  C        7.285    -267.353     260.438
  O       13.079    -264.304     259.953
  O       13.495    -264.385     262.521
  H        9.975    -267.358     256.176
  H       12.652    -263.413     259.988
  H        5.750    -267.406     261.917
  H        8.064    -267.030     261.122
  H        9.381    -268.253     258.250
  H        8.095    -266.221     256.837
  H        8.288    -264.696     258.754
  H       11.256    -265.583     258.753
  H        3.100    -268.447     259.528
  H       10.965    -263.641     260.172
  H        3.406    -267.951     261.162
  H        9.484    -264.331     260.887
  P        8.592    -262.847     256.917
  C        8.005    -263.204     254.403
  O        7.742    -263.553     255.757
  O        9.473    -261.768     256.125
  O        7.777    -262.214     258.013
  H        9.100    -260.868     256.232
  H        7.357    -263.761     253.759
  H        9.024    -263.432     254.167
  H        7.832    -262.157     254.265

 6  7  8  9  10  11  12  13  14  15  16  26  30  31  32  33  35 0
 6-311+G(2d,p)
 ****
 37  38 0
 6-311+G(2d,p)
 ****
 1  2  3  4  5  17  18  19  20  21  22  23  24  25 0
 3-21G
 ****
 27  28  29  34  36  39  40  41  42  43  44  45  46 0
 3-21G
 ****


