%nproc=1
%NoSave
%Mem=1900MB
#P OB98/GEN NMR

erre ene a

0 1
  C     -152.715     -53.374     658.201
  O     -153.110     -54.724     657.949
  P     -152.437     -55.863     658.856
  C     -150.349     -56.083     657.327
  O     -150.842     -55.810     658.635
  C     -148.810     -56.154     657.318
  O     -148.323     -57.079     658.332
  C     -148.222     -56.621     655.974
  O     -146.972     -55.951     655.794
  C     -147.962     -58.098     656.211
  O     -147.019     -58.622     655.278
  C     -147.498     -58.054     657.667
  N     -145.329     -62.657     658.197
  C     -144.981     -61.570     657.482
  N     -145.626     -60.386     657.380
  C     -146.730     -60.389     658.155
  C     -147.216     -61.416     658.926
  C     -146.468     -62.612     658.937
  N     -146.840     -63.737     659.641
  N     -148.400     -61.053     659.548
  C     -148.615     -59.814     659.137
  N     -147.616     -59.358     658.321
  O     -152.868     -57.221     658.114
  O     -152.889     -55.846     660.284
  H     -146.126     -58.374     655.576
  H     -153.549     -57.686     658.652
  H     -144.061     -61.664     656.908
  H     -149.481     -59.212     659.395
  H     -146.452     -57.743     657.769
  H     -148.902     -58.665     656.111
  H     -148.865     -56.446     655.104
  H     -148.410     -55.169     657.563
  H     -150.668     -55.283     656.633
  H     -146.271     -64.548     659.566
  H     -147.710     -63.732     660.156
  H     -150.794     -57.007     656.955
  P     -146.874     -54.924     654.569
  C     -146.173     -56.880     652.999
  O     -147.066     -55.799     653.235
  O     -145.323     -54.519     654.541
  O     -147.765     -53.731     654.698
  H     -145.212     -53.635     654.138
  H     -146.737     -57.727     652.601
  H     -145.662     -57.205     653.914
  H     -145.417     -56.579     652.268
  H     -153.234     -52.720     657.532
  H     -151.660     -53.276     658.048
  H     -152.954     -53.115     659.211

 3  4  5  6  7  8  9  10  11  12  22  25  29  30  31  32 0
 6-311+G(2d,p)
 ****
 33  36  37 0
 6-311+G(2d,p)
 ****
 1  2  13  14  15  16  17  18  19  20  21  23  24  26 0
 3-21G
 ****
 27  28  34  35  38  39  40  41  42  43  44  45  46  47  48 0
 3-21G
 ****


