%nproc=1
%NoSave
%Mem=1900MB
#P OB98/GEN NMR

erre ene a

0 1
  C      552.759    -851.636    -562.328
  O      554.108    -851.541    -562.734
  H      552.549    -852.637    -561.935
  H      552.586    -850.899    -561.530
  H      552.094    -851.413    -563.160
  P      554.563    -852.558    -563.902
  C      554.457    -850.798    -565.810
  O      553.926    -852.009    -565.274
  C      553.550    -850.253    -566.891
  O      553.511    -851.229    -567.975
  C      552.090    -850.024    -566.460
  O      551.665    -848.699    -566.829
  C      551.261    -851.036    -567.223
  O      549.993    -850.547    -567.584
  C      552.160    -851.294    -568.452
  N      548.622    -854.044    -570.893
  C      548.786    -852.710    -570.768
  N      549.803    -852.030    -570.162
  C      550.745    -852.897    -569.725
  C      550.736    -854.278    -569.805
  C      549.601    -854.856    -570.417
  N      549.414    -856.215    -570.496
  N      551.875    -854.833    -569.240
  C      552.531    -853.767    -568.755
  N      551.894    -852.584    -569.034
  O      553.703    -853.878    -563.580
  O      556.023    -852.844    -563.927
  H      549.617    -851.140    -568.275
  H      554.316    -854.620    -563.409
  H      547.983    -852.105    -571.187
  H      553.460    -853.815    -568.203
  H      552.037    -850.533    -569.227
  H      551.155    -851.926    -566.596
  H      551.964    -850.155    -565.363
  H      553.984    -849.342    -567.280
  H      555.467    -850.994    -566.227
  H      548.518    -856.564    -570.841
  H      550.074    -856.834    -570.044
  H      554.552    -850.073    -564.990
  P      551.484    -847.651    -565.633
  C      552.888    -845.489    -566.008
  O      552.867    -846.817    -565.472
  O      551.447    -848.542    -564.313
  O      550.241    -846.788    -565.745
  H      550.612    -848.403    -563.822
  H      553.849    -845.051    -565.838
  H      552.137    -844.898    -565.527
  H      552.694    -845.526    -567.060

 6  7  8  9  10  11  12  13  14  15  25  28  32  33  34  35 0
 6-311+G(2d,p)
 ****
 36  39  40 0
 6-311+G(2d,p)
 ****
 1  2  3  4  5  16  17  18  19  20  21  22  23  24 0
 3-21G
 ****
 26  27  29  30  31  37  38  41  42  43  44  45  46  47  48 0
 3-21G
 ****


