%nproc=1
%NoSave
%Mem=1900MB
#P OB98/GEN NMR

erre ene a

0 1
  C     -899.000    -895.540    -677.383
  O     -899.040    -896.870    -676.896
  H     -899.760    -895.420    -678.146
  H     -899.250    -894.880    -676.552
  H     -898.020    -895.310    -677.767
  P     -898.530    -898.020    -677.899
  C     -896.180    -898.270    -676.862
  O     -896.950    -897.870    -678.002
  C     -894.690    -897.900    -677.065
  O     -894.140    -898.810    -678.066
  C     -894.470    -896.450    -677.512
  O     -893.300    -895.950    -676.903
  C     -894.240    -896.590    -679.038
  O     -893.480    -895.510    -679.531
  C     -893.550    -897.930    -679.100
  N     -891.470    -898.240    -683.772
  C     -891.040    -897.680    -682.597
  N     -891.680    -897.600    -681.425
  C     -892.780    -898.320    -681.459
  C     -893.360    -899.030    -682.518
  C     -892.600    -898.950    -683.724
  N     -893.040    -899.550    -684.906
  N     -894.570    -899.620    -682.171
  C     -894.690    -899.320    -680.865
  N     -893.630    -898.530    -680.397
  O     -899.040    -897.470    -679.337
  O     -899.070    -899.400    -677.667
  H     -892.660    -895.420    -679.007
  H     -900.000    -897.660    -679.436
  H     -890.120    -897.100    -682.726
  H     -895.510    -899.650    -680.275
  H     -892.450    -897.860    -678.882
  H     -895.190    -896.640    -679.546
  H     -895.360    -895.820    -677.321
  H     -894.150    -898.140    -676.115
  H     -896.250    -899.360    -676.730
  H     -892.530    -899.420    -685.732
  H     -893.940    -900.000    -684.926
  H     -896.560    -897.780    -675.977
  P     -893.550    -894.690    -675.921
  C     -892.850    -895.950    -673.780
  O     -893.870    -895.230    -674.435
  O     -894.930    -894.060    -676.415
  O     -892.410    -893.680    -676.006
  H     -894.830    -893.120    -676.525
  H     -893.190    -896.248    -672.810
  H     -891.984    -895.330    -673.679
  H     -892.602    -896.819    -674.353

 6  7  8  9  10  11  12  13  14  15  25  28  32  33  34  35 0
 6-311+G(2d,p)
 ****
 36  39  40 0
 6-311+G(2d,p)
 ****
 1  2  3  4  5  16  17  18  19  20  21  22  23  24 0
 3-21G
 ****
 26  27  29  30  31  37  38  41  42  43  44  45  46  47 0
 3-21G
 ****
 48 0
 3-21G
 ****


