%nproc=1
%NoSave
%Mem=1900MB
#P OB98/GEN NMR

erre ene a

0 1
  C       99.499    -150.335     -25.510
  O       99.077    -151.594     -26.038
  P       97.826    -152.287     -25.308
  C       95.655    -151.959     -26.695
  O       96.796    -152.768     -26.442
  C       94.414    -152.828     -26.899
  O       93.205    -152.048     -26.980
  C       94.459    -153.658     -28.176
  O       95.267    -154.806     -27.979
  C       92.987    -153.989     -28.382
  O       92.593    -155.138     -27.606
  C       92.279    -152.725     -27.868
  N       88.448    -151.440     -30.931
  C       88.593    -152.538     -30.103
  N       87.557    -153.404     -30.071
  N       89.654    -152.764     -29.376
  C       90.610    -151.814     -29.507
  C       90.572    -150.669     -30.271
  C       89.392    -150.432     -31.076
  O       89.208    -149.465     -31.805
  N       91.706    -149.915     -30.101
  C       92.474    -150.669     -29.335
  N       91.833    -151.799     -28.895
  O       97.083    -151.055     -24.605
  O       98.218    -153.331     -24.316
  H       93.169    -155.891     -27.840
  H       97.189    -151.113     -23.636
  H       87.612    -151.319     -31.479
  H       93.487    -150.427     -29.049
  H       91.390    -152.977     -27.276
  H       92.769    -154.235     -29.426
  H       86.708    -153.291     -30.603
  H       94.830    -153.050     -29.009
  H       87.639    -154.211     -29.464
  H       94.330    -153.494     -26.027
  H       95.823    -151.342     -27.578
  H       95.518    -151.274     -25.851
  P       96.594    -154.948     -28.866
  C       98.034    -152.948     -28.048
  O       97.808    -154.343     -28.014
  O       96.368    -153.871     -30.031
  O       96.822    -156.312     -29.429
  H       96.623    -154.262     -30.889
  H       98.479    -152.639     -27.098
  H       97.106    -152.389     -28.204
  H       98.733    -152.716     -28.858
  H      100.334    -149.974     -26.073
  H       99.785    -150.456     -24.486
  H       98.694    -149.633     -25.575

 3  4  5  6  7  8  9  10  11  12  23  26  30  31 0
 6-311+G(2d,p)
 ****
 33  35  36  37  38 0
 6-311+G(2d,p)
 ****
 1  2  13  14  15  16  17  18  19  20  21  22  24  25 0
 3-21G
 ****
 27  28  29  32  34  39  40  41  42  43  44  45  46  47  48  49 0
 3-21G
 ****


