%nproc=1
%NoSave
%Mem=1900MB
#P OB98/GEN NMR

erre ene a

0 1
  C      397.878    -711.881     289.061
  O      398.221    -713.199     288.621
  P      399.065    -713.345     287.269
  C      397.052    -713.435     285.626
  O      398.195    -712.729     286.072
  C      396.502    -712.809     284.342
  O      395.906    -711.515     284.591
  C      397.560    -712.585     283.270
  O      397.809    -713.765     282.519
  C      396.872    -711.549     282.390
  O      395.925    -712.197     281.519
  C      396.138    -710.681     283.422
  N      398.031    -706.285     281.801
  C      397.293    -707.238     281.129
  N      397.014    -706.979     279.830
  N      396.874    -708.345     281.679
  C      397.204    -708.458     282.983
  C      397.934    -707.586     283.752
  C      398.410    -706.367     283.137
  O      399.077    -705.495     283.681
  N      398.079    -708.057     285.035
  C      397.427    -709.201     285.050
  N      396.896    -709.500     283.819
  O      398.998    -714.918     286.976
  O      400.474    -712.863     287.370
  H      395.457    -711.486     281.036
  H      399.784    -715.200     286.476
  H      398.336    -705.446     281.336
  H      397.313    -709.844     285.911
  H      395.162    -710.341     283.064
  H      397.578    -711.009     281.751
  H      397.266    -706.124     279.359
  H      398.477    -712.164     283.702
  H      396.448    -707.654     279.330
  H      395.724    -713.477     283.939
  H      396.276    -713.444     286.400
  H      397.323    -714.488     285.474
  P      398.996    -714.728     283.012
  C      400.806    -713.175     281.973
  O      400.293    -713.797     283.136
  O      399.281    -715.626     281.714
  O      398.671    -715.562     284.202
  H      399.586    -716.510     281.984
  H      401.580    -712.467     282.270
  H      400.016    -712.635     281.444
  H      401.252    -713.923     281.312
  H      397.319    -711.943     289.971
  H      397.287    -711.397     288.311
  H      398.772    -711.317     289.230

 3  4  5  6  7  8  9  10  11  12  23  26  30  31 0
 6-311+G(2d,p)
 ****
 33  35  36  37  38 0
 6-311+G(2d,p)
 ****
 1  2  13  14  15  16  17  18  19  20  21  22  24  25 0
 3-21G
 ****
 27  28  29  32  34  39  40  41  42  43  44  45  46  47  48  49 0
 3-21G
 ****


