%nproc=1
%NoSave
%Mem=1900MB
#P OB98/GEN NMR

erre ene a

0 1
  C      374.229     -13.122     125.382
  O      374.987     -12.308     126.273
  P      375.888     -13.026     127.385
  C      373.768     -13.135     128.966
  O      375.158     -12.957     128.803
  C      373.450     -13.314     130.458
  O      374.140     -14.470     130.982
  C      373.867     -12.119     131.312
  O      372.865     -11.120     131.355
  C      374.131     -12.770     132.654
  O      372.891     -13.038     133.335
  C      374.808     -14.093     132.222
  N      376.268     -14.085     131.988
  C      377.142     -14.166     133.071
  O      376.786     -14.239     134.244
  N      378.478     -14.169     132.766
  C      379.019     -14.275     131.518
  O      380.224     -14.335     131.308
  C      378.052     -14.339     130.418
  C      376.750     -14.230     130.695
  O      377.138     -12.046     127.551
  O      376.311     -14.418     127.033
  H      372.239     -13.290     132.657
  H      377.959     -12.489     127.264
  H      379.124     -14.154     133.537
  H      378.435     -14.471     129.416
  H      376.024     -14.275     129.885
  H      374.610     -14.884     132.954
  H      374.699     -12.111     133.308
  H      374.812     -11.706     130.946
  H      372.372     -13.487     130.565
  H      373.417     -14.003     128.403
  H      373.236     -12.265     128.567
  P      372.704     -10.097     130.133
  C      373.276      -8.274     131.844
  O      372.402      -8.670     130.802
  O      371.768     -10.513     129.049
  O      374.204      -9.918     129.595
  H      374.376     -10.518     128.835
  H      373.065      -7.233     132.101
  H      374.317      -8.356     131.524
  H      373.106      -8.897     132.727
  H      373.685     -12.498     124.704
  H      373.543     -13.722     125.943
  H      374.890     -13.757     124.830

 3  4  5  6  7  8  9  10  11  12  13  23  28  29  30  31  32 0
 6-311+G(2d,p)
 ****
 33  34 0
 6-311+G(2d,p)
 ****
 1  2  14  15  16  17  18  19  20  21  22  24  25  26  27 0
 3-21G
 ****
 35  36  37  38  39  40  41  42  43  44  45 0
 3-21G
 ****


