%nproc=1
%NoSave
%Mem=1900MB
#P OB98/GEN NMR

erre ene a

0 1
  C     -149.576     208.838      87.669
  O     -150.855     209.426      87.553
  H     -149.644     207.989      88.357
  H     -148.863     209.558      88.075
  H     -149.226     208.473      86.699
  P     -151.067     210.614      86.498
  C     -150.547     212.534      88.137
  O     -151.537     211.899      87.335
  C     -151.209     213.526      89.090
  O     -150.223     214.104      89.975
  C     -151.878     214.703      88.388
  O     -153.104     214.310      87.802
  C     -151.996     215.685      89.545
  O     -153.113     215.358      90.387
  C     -150.662     215.445      90.293
  N     -149.634     216.431      89.953
  C     -149.051     217.101      91.023
  O     -149.360     216.900      92.196
  N     -148.120     218.052      90.693
  C     -147.796     218.449      89.427
  O     -147.127     219.450      89.182
  C     -148.391     217.657      88.339
  C     -149.280     216.709      88.646
  O     -151.915     210.288      85.315
  O     -149.573     210.999      86.061
  H     -149.379     210.598      85.193
  H     -153.912     215.438      89.830
  H     -147.723     218.578      91.461
  H     -148.110     217.898      87.320
  H     -149.754     216.132      87.859
  H     -150.822     215.479      91.378
  H     -152.142     216.712      89.204
  H     -151.203     215.125      87.633
  H     -151.934     212.977      89.705
  H     -149.855     213.070      87.476
  H     -149.992     211.771      88.693
  P     -153.490     214.754      86.313
  C     -154.825     216.740      87.231
  O     -154.850     215.600      86.383
  O     -153.498     213.649      85.308
  O     -152.395     215.861      85.935
  H     -151.971     215.615      85.090
  H     -155.777     217.227      87.202
  H     -154.068     217.418      86.895
  H     -154.611     216.434      88.234

 6  7  8  9  10  11  12  13  14  15  16  27  31  32  33  34  35 0
 6-311+G(2d,p)
 ****
 36  37 0
 6-311+G(2d,p)
 ****
 1  2  3  4  5  17  18  19  20  21  22  23  24  25 0
 3-21G
 ****
 26  28  29  30  38  39  40  41  42  43  44  45 0
 3-21G
 ****


