%nproc=1
%NoSave
%Mem=1900MB
#P OB98/GEN NMR

erre ene a

0 1
  C     -173.694     151.161     -12.735
  O     -174.681     150.767     -13.665
  H     -172.716     150.845     -13.109
  H     -173.868     150.686     -11.767
  H     -173.689     152.249     -12.621
  P     -176.219     151.053     -13.323
  C     -176.553     148.754     -12.199
  O     -176.950     149.626     -13.252
  C     -177.662     147.735     -11.911
  O     -178.779     148.453     -11.331
  C     -178.151     147.025     -13.181
  O     -178.128     145.603     -13.071
  C     -179.495     147.690     -13.458
  O     -180.411     146.892     -14.179
  C     -179.970     148.106     -12.061
  N     -180.916     149.219     -12.065
  C     -182.099     149.049     -12.778
  O     -182.420     148.029     -13.384
  N     -182.951     150.123     -12.773
  C     -182.739     151.315     -12.150
  O     -183.544     152.239     -12.175
  C     -181.463     151.442     -11.432
  C     -180.621     150.405     -11.423
  O     -176.898     152.060     -14.189
  O     -176.194     151.520     -11.791
  H     -181.217     147.426     -14.329
  H     -176.287     152.489     -11.744
  H     -183.816     150.007     -13.277
  H     -181.256     152.379     -10.933
  H     -179.671     150.464     -10.901
  H     -180.447     147.267     -11.554
  H     -179.314     148.591     -14.057
  H     -177.478     147.223     -14.023
  H     -177.300     147.023     -11.161
  H     -176.358     149.364     -11.311
  H     -175.633     148.230     -12.482
  P     -176.862     144.689     -13.396
  C     -177.323     144.613     -15.976
  O     -177.151     143.903     -14.759
  O     -176.335     143.889     -12.254
  O     -175.727     145.759     -13.808
  H     -174.871     145.384     -13.516
  H     -177.506     143.920     -16.770
  H     -176.438     145.175     -16.189
  H     -178.155     145.279     -15.886

 6  7  8  9  10  11  12  13  14  15  16  26  31  32  33  34  35 0
 6-311+G(2d,p)
 ****
 36  37 0
 6-311+G(2d,p)
 ****
 1  2  3  4  5  17  18  19  20  21  22  23  24  25 0
 3-21G
 ****
 27  28  29  30  38  39  40  41  42  43  44  45 0
 3-21G
 ****


