%nproc=1
%NoSave
%Mem=1900MB
#P OB98/GEN NMR

erre ene a

0 1
  C     -650.050    -276.933    -728.605
  O     -650.342    -276.326    -727.367
  P     -649.184    -276.051    -726.294
  C     -647.412    -277.421    -725.013
  O     -648.607    -277.467    -725.819
  C     -647.666    -278.142    -723.687
  O     -648.362    -279.413    -723.909
  C     -646.393    -278.528    -722.952
  O     -645.783    -277.410    -722.336
  C     -646.927    -279.528    -721.949
  O     -647.533    -278.893    -720.819
  C     -647.992    -280.259    -722.797
  N     -647.568    -281.574    -723.277
  C     -647.674    -282.640    -722.390
  O     -648.073    -282.434    -721.228
  N     -647.338    -283.890    -722.828
  C     -646.839    -284.077    -723.998
  N     -646.607    -285.350    -724.380
  C     -646.561    -282.952    -724.907
  C     -646.938    -281.742    -724.497
  O     -649.530    -275.122    -725.187
  O     -647.987    -275.457    -727.196
  H     -647.642    -274.644    -726.749
  H     -646.811    -278.449    -720.334
  H     -646.051    -283.148    -725.850
  H     -646.796    -280.867    -725.125
  H     -648.933    -280.395    -722.209
  H     -646.150    -280.193    -721.578
  H     -645.709    -279.020    -723.638
  H     -648.315    -277.509    -723.029
  H     -646.827    -286.074    -723.735
  H     -647.194    -276.383    -724.822
  H     -646.498    -285.615    -725.353
  H     -646.596    -277.879    -725.564
  P     -644.172    -277.479    -722.169
  C     -642.593    -278.724    -720.508
  O     -643.914    -278.291    -720.797
  O     -643.781    -275.976    -721.753
  O     -643.409    -277.935    -723.347
  H     -642.930    -275.736    -722.128
  H     -642.526    -278.957    -719.446
  H     -641.861    -277.946    -720.764
  H     -642.381    -279.661    -721.096
  H     -650.950    -277.029    -729.176
  H     -649.629    -277.902    -728.437
  H     -649.349    -276.329    -729.142

 3  4  5  6  7  8  9  10  11  12  13  24  27  28  29  30  32 0
 6-311+G(2d,p)
 ****
 34  35 0
 6-311+G(2d,p)
 ****
 1  2  14  15  16  17  18  19  20  21  22  23  25  26 0
 3-21G
 ****
 31  33  36  37  38  39  40  41  42  43  44  45  46 0
 3-21G
 ****


