%nproc=1
%NoSave
%Mem=1900MB
#P OB98/GEN NMR

erre ene a

0 1
  C      674.363    -172.397    -288.218
  O      674.682    -173.564    -288.939
  H      673.279    -172.247    -288.250
  H      674.849    -171.518    -288.657
  H      674.675    -172.503    -287.171
  P      676.230    -173.864    -289.258
  C      678.005    -172.722    -290.753
  O      676.613    -172.878    -290.467
  C      678.223    -171.941    -292.050
  O      677.690    -172.680    -293.173
  C      677.493    -170.602    -292.079
  O      678.036    -169.635    -291.199
  C      677.433    -170.291    -293.571
  O      678.602    -169.650    -294.076
  C      677.320    -171.720    -294.185
  N      675.988    -171.974    -294.719
  C      675.703    -171.365    -295.934
  O      676.486    -170.622    -296.529
  N      674.440    -171.590    -296.431
  C      673.462    -172.309    -295.820
  O      672.341    -172.439    -296.301
  C      673.814    -172.905    -294.530
  C      675.047    -172.722    -294.043
  O      676.582    -175.300    -289.510
  O      677.002    -173.223    -288.012
  H      678.910    -169.030    -293.385
  H      677.928    -173.566    -287.952
  H      674.216    -171.158    -297.317
  H      673.054    -173.493    -294.004
  H      675.332    -173.156    -293.084
  H      678.043    -171.833    -294.997
  H      676.583    -169.648    -293.812
  H      676.464    -170.761    -291.754
  H      679.298    -171.825    -292.208
  H      678.439    -173.730    -290.861
  H      678.499    -172.222    -289.910
  P      677.138    -168.655    -290.317
  C      675.162    -167.016    -290.774
  O      676.278    -167.727    -291.309
  O      677.790    -168.023    -289.134
  O      676.016    -169.673    -289.753
  H      675.773    -169.378    -288.854
  H      674.695    -166.448    -291.551
  H      675.497    -166.356    -290.001
  H      674.457    -167.711    -290.368

 6  7  8  9  10  11  12  13  14  15  16  26  31  32  33  34  35 0
 6-311+G(2d,p)
 ****
 36  37 0
 6-311+G(2d,p)
 ****
 1  2  3  4  5  17  18  19  20  21  22  23  24  25 0
 3-21G
 ****
 27  28  29  30  38  39  40  41  42  43  44  45 0
 3-21G
 ****


