%nproc=1
%NoSave
%Mem=1900MB
#P OB98/GEN NMR

erre ene a

0 1
  C     -295.144     191.567     293.986
  O     -296.456     191.870     294.406
  P     -297.283     190.834     295.310
  C     -299.403     190.955     293.855
  O     -298.832     191.220     295.132
  C     -300.913     191.182     293.896
  O     -301.559     190.232     294.780
  C     -301.320     192.542     294.449
  O     -300.975     193.679     293.689
  C     -302.796     192.317     294.728
  O     -303.578     192.450     293.540
  C     -302.798     190.846     295.215
  N     -302.974     190.751     296.663
  C     -304.278     190.867     297.126
  O     -305.250     191.041     296.393
  N     -304.437     190.810     298.486
  C     -303.435     190.699     299.407
  O     -303.646     190.700     300.612
  C     -302.076     190.598     298.856
  C     -301.906     190.628     297.533
  O     -296.830     190.724     296.726
  O     -297.180     189.464     294.486
  H     -303.498     193.376     293.237
  H     -297.550     189.501     293.585
  H     -305.374     190.906     298.845
  H     -301.260     190.495     299.558
  H     -300.912     190.556     297.103
  H     -303.610     190.287     294.736
  H     -303.186     193.039     295.453
  H     -300.828     192.677     295.420
  H     -301.313     191.016     292.895
  H     -299.209     189.912     293.588
  H     -298.924     191.591     293.101
  P     -299.868     194.743     294.150
  C     -301.315     196.893     294.164
  O     -300.265     196.177     293.552
  O     -298.441     194.320     294.029
  O     -300.225     194.926     295.705
  H     -299.406     195.123     296.199
  H     -301.478     197.819     293.604
  H     -301.051     197.151     295.195
  H     -302.240     196.311     294.147
  H     -294.763     192.375     293.397
  H     -295.155     190.672     293.399
  H     -294.519     191.424     294.843

 3  4  5  6  7  8  9  10  11  12  13  23  28  29  30  31  32 0
 6-311+G(2d,p)
 ****
 33  34 0
 6-311+G(2d,p)
 ****
 1  2  14  15  16  17  18  19  20  21  22  24  25  26  27 0
 3-21G
 ****
 35  36  37  38  39  40  41  42  43  44  45 0
 3-21G
 ****


