%nproc=1
%NoSave
%Mem=1900MB
#P OB98/GEN NMR

erre ene a

0 1
  C     -661.368    -332.607    -400.268
  O     -661.760    -331.767    -401.333
  H     -661.558    -333.642    -400.551
  H     -661.944    -332.378    -399.366
  H     -660.299    -332.493    -400.067
  P     -661.645    -330.177    -401.146
  C     -663.752    -329.207    -402.283
  O     -662.363    -329.510    -402.413
  C     -664.499    -329.609    -403.558
  O     -663.822    -328.989    -404.679
  C     -664.510    -331.132    -403.784
  O     -665.815    -331.657    -403.991
  C     -663.480    -331.326    -404.899
  O     -663.685    -332.482    -405.689
  C     -663.549    -330.002    -405.670
  N     -662.339    -329.688    -406.412
  C     -662.262    -330.126    -407.731
  O     -663.143    -330.744    -408.325
  N     -661.096    -329.826    -408.389
  C     -660.029    -329.151    -407.873
  O     -659.016    -328.907    -408.515
  C     -660.164    -328.729    -406.470
  C     -661.288    -329.008    -405.814
  O     -660.275    -329.658    -400.857
  O     -662.657    -329.853    -399.947
  H     -663.083    -332.431    -406.455
  H     -662.152    -329.713    -399.122
  H     -661.032    -330.134    -409.346
  H     -659.327    -328.202    -406.023
  H     -661.418    -328.714    -404.780
  H     -664.383    -330.013    -406.377
  H     -662.493    -331.421    -404.440
  H     -664.162    -331.662    -402.890
  H     -665.516    -329.199    -403.516
  H     -663.846    -328.134    -402.103
  H     -664.163    -329.754    -401.425
  P     -666.343    -333.046    -403.396
  C     -667.659    -333.997    -405.458
  O     -667.700    -333.427    -404.157
  O     -666.347    -333.147    -401.911
  O     -665.276    -334.114    -403.960
  H     -665.200    -334.814    -403.282
  H     -668.657    -334.181    -405.798
  H     -667.117    -334.919    -405.426
  H     -667.172    -333.320    -406.129

 6  7  8  9  10  11  12  13  14  15  16  26  31  32  33  34  35 0
 6-311+G(2d,p)
 ****
 36  37 0
 6-311+G(2d,p)
 ****
 1  2  3  4  5  17  18  19  20  21  22  23  24  25 0
 3-21G
 ****
 27  28  29  30  38  39  40  41  42  43  44  45 0
 3-21G
 ****


