%nproc=1
%NoSave
%Mem=1900MB
#P OB98/GEN NMR

erre ene a

0 1
  C      187.433      62.139     -72.333
  O      186.908      61.152     -71.436
  P      185.394      60.617     -71.499
  C      183.106      61.454     -70.612
  O      184.421      61.808     -71.027
  C      182.283      62.703     -70.280
  O      182.772      63.315     -69.060
  C      182.355      63.824     -71.311
  O      181.611      63.524     -72.481
  C      181.812      65.005     -70.507
  O      180.376      65.036     -70.523
  C      182.316      64.694     -69.082
  N      183.368      65.598     -68.642
  C      182.965      66.701     -67.876
  O      181.770      66.918     -67.676
  N      183.937      67.535     -67.379
  C      185.179      67.354     -67.697
  N      186.095      68.203     -67.154
  C      185.628      66.282     -68.610
  C      184.678      65.449     -69.038
  O      185.172      59.333     -70.762
  O      185.067      60.450     -73.060
  H      184.377      59.771     -73.178
  H      180.111      65.300     -71.426
  H      186.671      66.189     -68.887
  H      184.924      64.625     -69.704
  H      181.483      64.733     -68.370
  H      182.159      65.966     -70.901
  H      183.405      64.010     -71.570
  H      181.239      62.395     -70.120
  H      185.756      68.921     -66.523
  H      183.183      60.830     -69.713
  H      187.088      68.130     -67.324
  H      182.625      60.866     -71.403
  P      182.278      62.493     -73.520
  C      184.321      62.506     -75.127
  O      183.522      63.236     -74.211
  O      181.189      62.393     -74.699
  O      182.587      61.150     -72.945
  H      181.139      61.469     -75.015
  H      184.766      63.208     -75.838
  H      183.734      61.766     -75.678
  H      185.121      61.999     -74.579
  H      188.458      62.329     -72.093
  H      186.870      63.044     -72.237
  H      187.362      61.780     -73.339

 3  4  5  6  7  8  9  10  11  12  13  24  27  28  29  30  32 0
 6-311+G(2d,p)
 ****
 34  35 0
 6-311+G(2d,p)
 ****
 1  2  14  15  16  17  18  19  20  21  22  23  25  26 0
 3-21G
 ****
 31  33  36  37  38  39  40  41  42  43  44  45  46 0
 3-21G
 ****


