%nproc=1
%NoSave
%Mem=1900MB
#P OB98/GEN NMR

erre ene a

0 1
  C       -6.901    -352.873      30.381
  O       -7.194    -354.132      30.947
  P       -8.033    -354.316      32.293
  C       -9.753    -355.997      31.311
  O       -9.538    -354.718      31.897
  C      -10.030    -357.092      32.351
  O      -11.097    -356.667      33.224
  C      -10.520    -358.366      31.656
  O       -9.594    -359.280      31.107
  C      -11.532    -358.977      32.619
  O      -10.969    -360.024      33.413
  C      -11.941    -357.796      33.501
  N      -16.762    -358.690      34.787
  C      -15.605    -359.135      35.392
  N      -15.762    -360.086      36.339
  N      -14.410    -358.702      35.079
  C      -14.409    -357.824      34.048
  C      -15.489    -357.300      33.381
  C      -16.804    -357.754      33.764
  O      -17.850    -357.447      33.198
  N      -15.105    -356.492      32.343
  C      -13.790    -356.556      32.355
  N      -13.322    -357.385      33.345
  O       -7.823    -353.292      33.361
  O       -7.444    -355.714      32.844
  H      -10.543    -360.660      32.809
  H       -7.441    -355.667      33.820
  H      -17.650    -359.118      35.019
  H      -13.135    -356.056      31.649
  H      -11.799    -358.038      34.562
  H      -12.368    -359.423      32.070
  H      -16.645    -360.543      36.503
  H      -11.116    -358.045      30.792
  H      -14.930    -360.555      36.682
  H       -9.163    -357.250      32.996
  H       -8.864    -356.240      30.721
  H      -10.594    -355.943      30.616
  P       -9.922    -360.470      30.090
  C       -9.278    -359.249      27.937
  O      -10.332    -359.832      28.682
  O      -11.306    -361.075      30.623
  O       -8.882    -361.540      30.015
  H      -11.408    -361.992      30.306
  H       -9.700    -358.594      27.171
  H       -8.694    -360.035      27.450
  H       -8.620    -358.659      28.586
  H       -6.330    -353.008      29.486
  H       -6.337    -352.291      31.079
  H       -7.814    -352.365      30.148

 3  4  5  6  7  8  9  10  11  12  23  26  30  31 0
 6-311+G(2d,p)
 ****
 33  35  36  37  38 0
 6-311+G(2d,p)
 ****
 1  2  13  14  15  16  17  18  19  20  21  22  24  25 0
 3-21G
 ****
 27  28  29  32  34  39  40  41  42  43  44  45  46  47  48  49 0
 3-21G
 ****


