%nproc=1
%NoSave
%Mem=1900MB
#P OB98/GEN NMR

erre ene a

0 1
  C      138.832    -506.467     144.286
  O      139.088    -505.076     144.096
  P      139.185    -504.136     145.390
  C      141.403    -502.966     144.769
  O      140.734    -503.828     145.687
  C      142.923    -503.010     144.996
  O      143.203    -502.617     146.364
  C      143.563    -504.396     144.821
  O      144.014    -504.771     143.523
  C      144.811    -504.253     145.696
  O      145.858    -503.601     144.950
  C      144.355    -503.354     146.838
  N      145.507    -504.033     151.775
  C      146.029    -503.212     150.832
  N      145.663    -503.096     149.537
  C      144.640    -503.921     149.253
  C      144.010    -504.803     150.114
  C      144.485    -504.846     151.435
  N      143.967    -505.685     152.394
  N      143.008    -505.493     149.462
  C      143.051    -505.043     148.217
  N      144.007    -504.086     148.046
  O      138.380    -504.565     146.573
  O      138.662    -502.727     144.829
  H      145.514    -502.724     144.702
  H      138.133    -502.283     145.521
  H      146.847    -502.572     151.153
  H      142.407    -505.385     147.416
  H      145.116    -502.616     147.119
  H      145.210    -505.224     146.008
  H      142.913    -505.178     145.223
  H      143.410    -502.287     144.328
  H      141.041    -501.942     144.894
  H      144.396    -505.685     153.307
  H      143.242    -506.344     152.141
  H      141.120    -503.283     143.763
  P      143.657    -506.195     142.895
  C      141.965    -505.196     141.163
  O      142.186    -506.034     142.278
  O      143.817    -507.352     143.818
  O      144.588    -506.248     141.594
  H      144.342    -505.618     140.896
  H      140.965    -505.392     140.768
  H      142.702    -505.388     140.378
  H      142.026    -504.148     141.476
  H      138.796    -506.956     143.335
  H      137.895    -506.592     144.787
  H      139.613    -506.896     144.879

 3  4  5  6  7  8  9  10  11  12  22  25  29  30  31  32 0
 6-311+G(2d,p)
 ****
 33  36  37 0
 6-311+G(2d,p)
 ****
 1  2  13  14  15  16  17  18  19  20  21  23  24  26 0
 3-21G
 ****
 27  28  34  35  38  39  40  41  42  43  44  45  46  47  48 0
 3-21G
 ****


