%nproc=1
%NoSave
%Mem=1900MB
#P OB98/GEN NMR

erre ene a

0 1
  C      -13.691      17.343      -7.300
  O      -13.191      18.443      -6.566
  H      -13.378      16.420      -6.807
  H      -13.288      17.355      -8.316
  H      -14.784      17.375      -7.331
  P      -13.524      19.901      -7.147
  C      -11.079      20.764      -7.101
  O      -12.194      20.396      -7.898
  C       -9.788      20.229      -7.712
  O       -9.883      18.806      -7.942
  C       -9.414      20.862      -9.047
  O       -8.748      22.099      -8.859
  C       -8.509      19.791      -9.640
  O       -7.173      19.873      -9.103
  C       -9.201      18.498      -9.187
  N       -9.712      15.444     -13.173
  C       -8.609      15.708     -12.389
  N       -7.455      15.108     -12.756
  N       -8.628      16.496     -11.348
  C       -9.842      17.051     -11.122
  C      -11.014      16.855     -11.815
  C      -10.984      15.955     -12.947
  O      -11.942      15.627     -13.641
  N      -12.041      17.580     -11.269
  C      -11.484      18.242     -10.273
  N      -10.146      17.967     -10.154
  O      -13.568      20.824      -5.837
  O      -14.786      20.004      -7.933
  H       -6.626      19.173      -9.498
  H      -14.200      21.553      -5.982
  H       -9.638      14.813     -13.951
  H      -12.002      18.926      -9.616
  H       -8.483      17.699      -8.975
  H       -8.417      19.895     -10.722
  H       -7.305      14.780     -13.701
  H      -10.300      20.981      -9.682
  H       -6.635      15.315     -12.200
  H       -8.988      20.384      -6.977
  H      -11.204      20.342      -6.098
  H      -11.035      21.856      -7.025
  P       -9.543      23.440      -9.245
  C       -7.947      23.555     -11.296
  O       -9.275      23.690     -10.807
  O       -8.689      24.593      -8.537
  O      -10.973      23.459      -8.824
  H       -9.219      25.410      -8.474
  H       -7.932      23.752     -12.348
  H       -7.600      22.559     -11.115
  H       -7.309      24.252     -10.794

 6  7  8  9  10  11  12  13  14  15  26  29  33  34 0
 6-311+G(2d,p)
 ****
 36  38  39  40  41 0
 6-311+G(2d,p)
 ****
 1  2  3  4  5  16  17  18  19  20  21  22  23  24  25 0
 3-21G
 ****
 27  28  30  31  32  35  37  42  43  44  45  46  47 0
 3-21G
 ****
 48  49 0
 3-21G
 ****


