%nproc=1
%NoSave
%Mem=1900MB
#P OB98/GEN NMR

erre ene a

0 1
  C     -291.487    -315.576     344.352
  O     -292.110    -315.656     343.082
  H     -292.266    -315.622     345.127
  H     -290.939    -314.638     344.454
  H     -290.807    -316.420     344.487
  P     -291.141    -315.495     341.804
  C     -291.094    -312.902     342.156
  O     -291.429    -313.999     341.299
  C     -290.809    -311.665     341.320
  O     -289.639    -311.870     340.486
  C     -291.927    -311.278     340.343
  O     -293.020    -310.621     340.992
  C     -291.152    -310.337     339.428
  O     -290.933    -309.076     340.101
  C     -289.841    -311.118     339.247
  N     -289.865    -312.012     338.089
  C     -289.411    -311.498     336.875
  O     -289.013    -310.332     336.797
  N     -289.442    -312.290     335.760
  C     -289.870    -313.525     335.851
  N     -289.873    -314.260     334.704
  C     -290.338    -314.128     337.114
  C     -290.298    -313.319     338.182
  O     -291.862    -316.390     340.679
  O     -289.708    -315.825     342.028
  H     -291.783    -308.601     340.093
  H     -291.427    -316.248     339.809
  H     -290.680    -315.145     337.137
  H     -290.625    -313.697     339.155
  H     -288.981    -310.430     339.141
  H     -291.686    -310.112     338.507
  H     -292.279    -312.136     339.780
  H     -290.570    -310.838     342.023
  H     -289.596    -313.812     333.843
  H     -290.199    -313.187     342.730
  H     -290.321    -315.170     334.639
  H     -291.918    -312.692     342.844
  P     -294.458    -311.314     340.881
  C     -295.186    -310.103     338.683
  O     -295.405    -310.287     340.081
  O     -295.014    -311.242     342.375
  O     -294.444    -312.709     340.350
  H     -295.564    -312.027     342.580
  H     -295.892    -309.395     338.302
  H     -295.309    -311.038     338.177
  H     -294.193    -309.739     338.522

 6  7  8  9  10  11  12  13  14  15  16  26  30  31  32  33  35 0
 6-311+G(2d,p)
 ****
 37  38 0
 6-311+G(2d,p)
 ****
 1  2  3  4  5  17  18  19  20  21  22  23  24  25 0
 3-21G
 ****
 27  28  29  34  36  39  40  41  42  43  44  45  46 0
 3-21G
 ****


