%nproc=1
%NoSave
%Mem=1900MB
#P OB98/GEN NMR

erre ene a

0 1
  C      -34.775     397.287     256.581
  O      -34.858     396.911     255.214
  P      -36.248     396.416     254.570
  C      -36.113     397.719     252.341
  O      -36.716     397.627     253.627
  C      -35.304     399.011     252.237
  O      -34.334     399.064     253.309
  C      -34.506     399.159     250.950
  O      -35.349     399.522     249.863
  C      -33.479     400.208     251.364
  O      -34.060     401.518     251.317
  C      -33.192     399.808     252.830
  N      -31.958     399.039     252.976
  C      -30.765     399.733     252.773
  O      -30.764     400.935     252.487
  N      -29.577     399.058     252.925
  C      -29.585     397.793     253.230
  N      -28.377     397.190     253.438
  C      -30.824     397.013     253.402
  C      -31.961     397.695     253.268
  O      -37.270     395.971     255.560
  O      -35.824     395.296     253.517
  H      -33.537     402.081     251.919
  H      -35.775     394.387     253.907
  H      -30.782     395.960     253.648
  H      -32.918     397.198     253.395
  H      -33.127     400.710     253.457
  H      -32.580     400.216     250.729
  H      -33.995     398.218     250.708
  H      -35.994     399.862     252.358
  H      -27.569     397.801     253.485
  H      -36.906     397.731     251.584
  H      -28.308     396.318     253.950
  H      -35.474     396.842     252.177
  P      -35.165     398.716     248.487
  C      -37.581     397.780     248.400
  O      -36.206     397.496     248.549
  O      -33.726     398.030     248.649
  O      -35.252     399.567     247.259
  H      -33.054     398.535     248.152
  H      -38.120     396.841     248.228
  H      -37.753     398.441     247.546
  H      -37.972     398.245     249.315
  H      -33.772     397.582     256.809
  H      -35.051     396.457     257.197
  H      -35.439     398.105     256.767

 3  4  5  6  7  8  9  10  11  12  13  23  27  28  29  30  32 0
 6-311+G(2d,p)
 ****
 34  35 0
 6-311+G(2d,p)
 ****
 1  2  14  15  16  17  18  19  20  21  22  24  25  26 0
 3-21G
 ****
 31  33  36  37  38  39  40  41  42  43  44  45  46 0
 3-21G
 ****


