%nproc=1
%NoSave
%Mem=1900MB
#P OB98/GEN NMR

erre ene a

0 1
  C      -74.403     -55.399     114.531
  O      -73.803     -56.343     115.396
  H      -73.666     -54.633     114.280
  H      -75.250     -54.921     115.031
  H      -74.739     -55.880     113.607
  P      -74.627     -57.682     115.710
  C      -75.009     -57.726     118.283
  O      -74.203     -58.143     117.190
  C      -74.203     -57.784     119.580
  O      -72.981     -57.012     119.404
  C      -74.935     -57.204     120.798
  O      -74.582     -57.983     121.952
  C      -74.340     -55.815     120.930
  O      -74.444     -55.265     122.238
  C      -72.894     -56.082     120.502
  N      -72.192     -54.862     120.101
  C      -71.445     -54.205     121.076
  O      -71.262     -54.622     122.220
  N      -70.888     -53.012     120.688
  C      -71.024     -52.417     119.468
  O      -70.519     -51.337     119.188
  C      -71.832     -53.152     118.486
  C      -72.373     -54.321     118.843
  O      -73.921     -58.767     114.768
  O      -76.100     -57.598     115.482
  H      -74.352     -58.792     113.893
  H      -75.386     -55.314     122.503
  H      -70.345     -52.523     121.382
  H      -71.971     -52.707     117.506
  H      -72.994     -54.880     118.147
  H      -72.339     -56.576     121.307
  H      -74.834     -55.130     120.234
  H      -76.026     -57.177     120.694
  H      -73.903     -58.824     119.763
  H      -75.876     -58.389     118.370
  H      -75.363     -56.703     118.098
  P      -75.651     -58.058     123.149
  C      -74.071     -58.084     125.242
  O      -74.900     -58.814     124.348
  O      -76.677     -59.137     122.573
  O      -76.243     -56.728     123.484
  H      -76.248     -59.833     122.048
  H      -73.658     -58.750     125.970
  H      -74.652     -57.333     125.735
  H      -73.278     -57.619     124.694

 6  7  8  9  10  11  12  13  14  15  16  27  31  32  33  34  35 0
 6-311+G(2d,p)
 ****
 36  37 0
 6-311+G(2d,p)
 ****
 1  2  3  4  5  17  18  19  20  21  22  23  24  25 0
 3-21G
 ****
 26  28  29  30  38  39  40  41  42  43  44  45 0
 3-21G
 ****


