%nproc=1
%NoSave
%Mem=1900MB
#P OB98/GEN NMR

erre ene a

0 1
  C     -557.460     430.277    -209.567
  O     -556.356     429.488    -209.986
  P     -556.516     428.587    -211.299
  C     -557.222     426.120    -211.752
  O     -557.277     427.237    -210.878
  C     -557.911     424.911    -211.118
  O     -557.035     424.329    -210.100
  C     -559.244     425.230    -210.441
  O     -560.106     424.098    -210.601
  C     -558.852     425.365    -208.979
  O     -559.948     425.233    -208.089
  C     -557.809     424.254    -208.883
  N     -556.958     424.368    -207.699
  C     -557.293     423.595    -206.593
  O     -558.257     422.828    -206.552
  N     -556.512     423.776    -205.476
  C     -555.518     424.692    -205.340
  O     -554.935     424.887    -204.271
  C     -555.203     425.483    -206.537
  C     -555.920     425.290    -207.649
  O     -555.023     428.100    -211.600
  O     -557.125     429.294    -212.478
  H     -560.659     425.812    -208.414
  H     -554.627     428.639    -212.308
  H     -556.732     423.215    -204.666
  H     -554.393     426.204    -206.468
  H     -555.729     425.868    -208.542
  H     -558.294     423.275    -208.882
  H     -558.401     426.354    -208.810
  H     -559.731     426.130    -210.831
  H     -558.047     424.145    -211.895
  H     -556.174     425.875    -211.950
  H     -557.686     426.378    -212.711
  P     -561.614     424.350    -211.103
  C     -563.898     424.799    -209.908
  O     -562.498     424.613    -209.798
  O     -562.031     422.877    -211.570
  O     -561.714     425.371    -212.201
  H     -561.739     422.189    -210.937
  H     -564.315     424.188    -210.719
  H     -564.105     425.849    -210.098
  H     -564.363     424.509    -208.967
  H     -557.197     430.817    -208.682
  H     -558.295     429.641    -209.362
  H     -557.720     430.967    -210.342

 3  4  5  6  7  8  9  10  11  12  13  23  28  29  30  31  32 0
 6-311+G(2d,p)
 ****
 33  34 0
 6-311+G(2d,p)
 ****
 1  2  14  15  16  17  18  19  20  21  22  24  25  26 0
 3-21G
 ****
 27  35  36  37  38  39  40  41  42  43  44  45 0
 3-21G
 ****


