%nproc=1
%NoSave
%Mem=1900MB
#P OB98/GEN NMR

erre ene a

0 1
  C       36.499      69.244     -82.639
  O       35.535      68.248     -82.353
  H       35.981      70.161     -82.931
  H       37.135      68.917     -83.467
  H       37.112      69.449     -81.756
  P       36.081      66.900     -81.682
  C       37.784      65.084     -82.506
  O       36.788      66.040     -82.843
  C       38.731      64.876     -83.686
  O       39.399      66.106     -84.028
  C       39.874      63.912     -83.408
  O       39.449      62.567     -83.352
  C       40.789      64.211     -84.587
  O       40.405      63.477     -85.756
  C       40.569      65.730     -84.796
  N       41.742      66.500     -84.430
  C       42.885      66.256     -85.204
  O       42.840      65.450     -86.134
  N       44.050      66.902     -84.879
  C       44.081      67.698     -83.855
  N       45.276      68.282     -83.567
  C       42.900      67.981     -83.012
  C       41.775      67.353     -83.352
  O       34.734      66.087     -81.393
  O       36.941      67.104     -80.479
  H       39.434      63.582     -85.840
  H       34.134      66.042     -82.156
  H       42.977      68.663     -82.177
  H       40.861      67.503     -82.788
  H       40.334      65.942     -85.848
  H       41.827      63.943     -84.370
  H       40.397      64.202     -82.486
  H       38.135      64.549     -84.549
  H       46.072      68.018     -84.137
  H       37.324      64.134     -82.217
  H       45.438      68.855     -82.752
  H       38.333      65.466     -81.639
  P       40.398      61.418     -82.767
  C       41.609      59.404     -83.827
  O       41.118      60.725     -84.028
  O       39.740      60.459     -81.834
  O       41.604      62.243     -82.110
  H       42.096      62.813     -82.729
  H       42.064      59.051     -84.729
  H       40.798      58.759     -83.560
  H       42.334      59.409     -83.040

 6  7  8  9  10  11  12  13  14  15  16  26  30  31  32  33  35 0
 6-311+G(2d,p)
 ****
 37  38 0
 6-311+G(2d,p)
 ****
 1  2  3  4  5  17  18  19  20  21  22  23  24  25 0
 3-21G
 ****
 27  28  29  34  36  39  40  41  42  43  44  45  46 0
 3-21G
 ****


