%nproc=1
%NoSave
%Mem=1900MB
#P OB98/GEN NMR

erre ene a

0 1
  C       63.142     230.979      45.158
  O       64.489     231.223      45.565
  P       65.337     230.043      46.239
  C       66.478     231.397      48.126
  O       66.651     230.656      46.922
  C       67.515     232.520      48.205
  O       67.093     233.685      47.456
  C       67.732     233.029      49.626
  O       68.378     232.153      50.525
  C       68.375     234.384      49.388
  O       69.780     234.268      49.162
  C       67.656     234.849      48.101
  N       66.630     235.861      48.363
  C       67.091     237.118      48.742
  O       68.282     237.378      48.902
  N       66.128     238.063      48.975
  C       64.779     237.866      48.895
  O       63.958     238.746      49.134
  C       64.351     236.513      48.512
  C       65.279     235.587      48.266
  O       65.567     228.841      45.387
  O       64.440     229.653      47.516
  H       70.078     235.103      48.750
  H       64.446     228.679      47.598
  H       66.444     238.980      49.242
  H       63.288     236.320      48.446
  H       64.985     234.583      47.983
  H       68.375     235.282      47.394
  H       68.244     235.048      50.248
  H       66.741     233.223      50.065
  H       68.448     232.165      47.761
  H       66.572     230.732      48.987
  H       65.457     231.796      48.155
  P       68.375     232.363      52.114
  C       70.655     231.217      52.567
  O       69.261     231.205      52.780
  O       67.067     232.681      52.760
  O       69.340     233.639      52.265
  H       69.034     234.170      53.024
  H       71.093     230.351      53.076
  H       71.098     232.126      52.979
  H       70.880     231.142      51.499
  H       62.731     231.870      44.731
  H       62.560     230.689      46.008
  H       63.126     230.195      44.430

 3  4  5  6  7  8  9  10  11  12  13  23  28  29  30  31  32 0
 6-311+G(2d,p)
 ****
 33  34 0
 6-311+G(2d,p)
 ****
 1  2  14  15  16  17  18  19  20  21  22  24  25  26  27 0
 3-21G
 ****
 35  36  37  38  39  40  41  42  43  44  45 0
 3-21G
 ****


