%nproc=1
%NoSave
%Mem=1900MB
#P OB98/GEN NMR

erre ene a

0 1
  C        1.937      28.561       1.297
  O        0.554      28.580       0.988
  P        0.038      29.715      -0.027
  C       -0.664      31.316       1.895
  O        0.162      31.112       0.754
  C       -0.668      32.785       2.322
  O        0.694      33.202       2.581
  C       -1.266      33.735       1.284
  O       -1.982      34.754       1.985
  C       -0.046      34.354       0.628
  O       -0.345      35.624       0.050
  C        0.940      34.393       1.805
  N        2.328      34.464       1.359
  C        2.733      35.649       0.739
  O        1.913      36.540       0.520
  N        4.040      35.774       0.337
  C        4.843      34.761       0.445
  N        6.128      34.935       0.035
  C        4.423      33.452       0.981
  C        3.172      33.382       1.434
  O       -1.540      29.458      -0.076
  O        0.663      29.668      -1.382
  H       -0.743      36.190       0.749
  H       -1.902      29.687      -0.953
  H        5.122      32.629       1.016
  H        2.784      32.468       1.866
  H        0.737      35.258       2.450
  H        0.326      33.693      -0.164
  H       -1.934      33.231       0.581
  H       -1.217      32.863       3.269
  H        6.388      35.837      -0.342
  H       -0.276      30.720       2.726
  H        6.824      34.203       0.081
  H       -1.680      30.974       1.674
  P       -3.480      35.072       1.509
  C       -2.875      37.421       0.668
  O       -3.319      36.127       0.312
  O       -3.999      36.015       2.699
  O       -4.410      33.928       1.283
  H       -4.939      36.232       2.560
  H       -2.680      37.989      -0.246
  H       -1.953      37.363       1.251
  H       -3.651      37.937       1.242
  H        2.139      27.761       1.978
  H        2.215      29.491       1.747
  H        2.501      28.416       0.399

 3  4  5  6  7  8  9  10  11  12  13  21  23  27  28  29  30  32 0
 6-311+G(2d,p)
 ****
 34  35 0
 6-311+G(2d,p)
 ****
 1  2  14  15  16  17  18  19  20  22  24  25  26 0
 3-21G
 ****
 31  33  36  37  38  39  40  41  42  43  44  45  46 0
 3-21G
 ****


