%nproc=1
%NoSave
%Mem=1900MB
#P OB98/GEN NMR

erre ene a

0 1
  C      122.549     -11.227      64.666
  O      121.320     -11.054      63.992
  H      123.331     -11.505      63.955
  H      122.826     -10.284      65.144
  H      122.454     -11.998      65.435
  P      120.753     -12.335      63.208
  C      118.199     -12.084      63.542
  O      119.298     -11.931      62.655
  C      117.892     -10.756      64.228
  O      117.499      -9.800      63.209
  C      116.763     -10.834      65.270
  O      117.175     -10.234      66.504
  C      115.649      -9.995      64.672
  O      114.892      -9.296      65.654
  C      116.402      -9.050      63.745
  N      112.845      -5.582      62.605
  C      113.765      -5.624      63.593
  N      114.748      -6.527      63.784
  C      114.748      -7.444      62.802
  C      113.889      -7.517      61.719
  C      112.884      -6.538      61.649
  N      111.911      -6.526      60.673
  N      114.193      -8.606      60.923
  C      115.192      -9.205      61.540
  N      115.551      -8.548      62.688
  O      120.436     -13.374      64.385
  O      121.691     -12.913      62.204
  H      115.493      -8.662      66.087
  H      120.984     -14.171      64.256
  H      113.700      -4.830      64.332
  H      115.657     -10.132      61.229
  H      116.816      -8.191      64.290
  H      114.971     -10.650      64.112
  H      116.434     -11.861      65.458
  H      118.812     -10.377      64.689
  H      118.444     -12.832      64.304
  H      111.162      -5.859      60.766
  H      111.871      -7.300      60.026
  H      117.329     -12.432      62.975
  P      117.540     -11.248      67.699
  C      119.206      -9.674      68.921
  O      117.970     -10.375      68.978
  O      118.907     -11.915      67.204
  O      116.491     -12.279      67.954
  H      118.814     -12.886      67.179
  H      119.357      -9.142      69.837
  H      119.186      -8.982      68.105
  H      120.005     -10.371      68.778

 6  7  8  9  10  11  12  13  14  15  25  28  32  33  34  35 0
 6-311+G(2d,p)
 ****
 36  39  40 0
 6-311+G(2d,p)
 ****
 1  2  3  4  5  16  17  18  19  20  21  22  23  24 0
 3-21G
 ****
 26  27  29  30  31  37  38  41  42  43  44  45  46  47  48 0
 3-21G
 ****


