%nproc=1
%NoSave
%Mem=1900MB
#P OB98/GEN NMR

erre ene a

0 1
  C     -340.436    -202.043    -500.865
  O     -339.692    -201.377    -499.841
  P     -339.804    -199.799    -499.566
  C     -338.576    -199.107    -501.729
  O     -339.776    -199.011    -500.961
  C     -338.703    -198.376    -503.066
  O     -339.843    -198.863    -503.805
  C     -338.911    -196.868    -502.957
  O     -337.699    -196.209    -502.631
  C     -339.455    -196.545    -504.342
  O     -338.394    -196.411    -505.301
  C     -340.318    -197.787    -504.645
  N     -341.739    -197.548    -504.451
  C     -342.367    -196.716    -505.384
  O     -341.714    -196.186    -506.282
  N     -343.720    -196.494    -505.261
  C     -344.365    -196.989    -504.255
  N     -345.702    -196.740    -504.190
  C     -343.724    -197.796    -503.195
  C     -342.423    -198.034    -503.363
  O     -338.829    -199.283    -498.560
  O     -341.304    -199.581    -499.049
  H     -337.911    -197.260    -505.293
  H     -341.323    -198.826    -498.424
  H     -344.293    -198.167    -502.358
  H     -341.874    -198.624    -502.630
  H     -340.153    -198.123    -505.676
  H     -340.025    -195.608    -504.362
  H     -339.676    -196.656    -502.202
  H     -337.804    -198.595    -503.653
  H     -346.111    -196.193    -504.933
  H     -338.377    -200.168    -501.915
  H     -346.297    -197.080    -503.450
  H     -337.752    -198.688    -501.141
  P     -337.511    -195.571    -501.167
  C     -338.230    -193.185    -501.790
  O     -338.537    -194.346    -501.037
  O     -336.101    -195.269    -500.776
  O     -338.156    -196.667    -500.187
  H     -337.684    -196.647    -499.335
  H     -339.149    -192.617    -501.944
  H     -337.806    -193.449    -502.768
  H     -337.512    -192.576    -501.237
  H     -340.198    -203.086    -500.858
  H     -340.184    -201.626    -501.818
  H     -341.483    -201.915    -500.685

 3  4  5  6  7  8  9  10  11  12  13  23  27  28  29  30  32 0
 6-311+G(2d,p)
 ****
 34  35 0
 6-311+G(2d,p)
 ****
 1  2  14  15  16  17  18  19  20  21  22  24  25  26 0
 3-21G
 ****
 31  33  36  37  38  39  40  41  42  43  44  45  46 0
 3-21G
 ****


