%nproc=1
%NoSave
%Mem=1900MB
#P OB98/GEN NMR

erre ene a

0 1
  C     -121.715     515.635     -96.986
  O     -120.457     516.169     -97.368
  P     -119.559     516.862     -96.235
  C     -118.967     519.371     -96.009
  O     -119.997     518.410     -96.198
  C     -119.218     520.613     -96.859
  O     -119.155     520.235     -98.269
  C     -120.586     521.277     -96.622
  O     -120.417     522.702     -96.563
  C     -121.363     520.955     -97.887
  O     -122.390     521.909     -98.141
  C     -120.231     520.947     -98.914
  N     -123.384     521.078    -102.864
  C     -123.169     522.018    -101.875
  N     -123.944     523.125    -101.916
  N     -122.277     521.880    -100.928
  C     -121.547     520.745    -101.029
  C     -121.667     519.742    -101.963
  C     -122.695     519.872    -102.975
  O     -123.002     519.035    -103.818
  N     -120.737     518.748    -101.753
  C     -120.071     519.147    -100.685
  N     -120.557     520.327    -100.182
  O     -118.104     516.900     -96.898
  O     -119.544     516.162     -94.920
  H     -123.071     521.775     -97.456
  H     -117.463     516.448     -96.307
  H     -124.099     521.220    -103.560
  H     -119.252     518.603    -100.225
  H     -119.894     521.970     -99.118
  H     -121.826     519.962     -97.783
  H     -124.629     523.309    -102.633
  H     -121.102     520.931     -95.715
  H     -123.787     523.832    -101.218
  H     -118.405     521.326     -96.688
  H     -118.005     518.926     -96.299
  H     -118.924     519.648     -94.950
  P     -121.392     523.483     -95.560
  C     -123.463     524.997     -96.027
  O     -122.688     523.885     -96.422
  O     -120.640     524.881     -95.326
  O     -121.654     522.757     -94.279
  H     -120.904     525.273     -94.468
  H     -122.976     525.583     -95.240
  H     -124.424     524.648     -95.666
  H     -123.619     525.647     -96.899
  H     -122.196     515.209     -97.841
  H     -122.327     516.416     -96.585
  H     -121.571     514.878     -96.244

 3  4  5  6  7  8  9  10  11  12  23  26  30  31  33  0
 6-311+G(2d,p)
 ****
 35  36  37  38 0
 6-311+G(2d,p)
 ****
 1  2  13  14  15  16  17  18  19  20  21  22  24  25  27  28  29 0
 3-21G
 ****
 32  34  39  40  41  42  43  44  45  46  47  48  49 0
 3-21G
 ****


