%nproc=1
%NoSave
%Mem=1900MB
#P OB98/GEN NMR

erre ene a

0 1
  C     -663.945     586.843    -618.058
  O     -664.550     586.055    -619.066
  H     -664.141     587.898    -618.273
  H     -662.866     586.684    -618.055
  H     -664.367     586.597    -617.078
  P     -664.401     584.466    -618.916
  C     -662.429     582.833    -619.299
  O     -662.913     584.163    -619.441
  C     -661.428     582.514    -620.410
  O     -662.077     582.456    -621.689
  C     -660.311     583.536    -620.568
  O     -659.288     583.336    -619.601
  C     -659.828     583.235    -621.975
  O     -658.960     582.085    -621.952
  C     -661.138     582.885    -622.706
  N     -662.113     584.718    -627.408
  C     -661.347     583.684    -626.987
  N     -661.099     583.279    -625.720
  C     -661.737     584.064    -624.830
  C     -662.548     585.166    -625.120
  C     -662.739     585.478    -626.469
  N     -663.527     586.523    -626.903
  N     -663.026     585.727    -623.954
  C     -662.557     584.959    -622.991
  N     -661.745     583.965    -623.467
  O     -665.493     583.647    -619.516
  O     -664.239     584.326    -617.319
  H     -659.396     581.385    -621.429
  H     -663.698     585.047    -616.969
  H     -660.880     583.100    -627.775
  H     -662.792     585.073    -621.931
  H     -661.007     582.042    -623.410
  H     -659.255     584.050    -622.406
  H     -660.704     584.562    -620.537
  H     -661.000     581.518    -620.209
  H     -663.259     582.116    -619.334
  H     -663.469     586.780    -627.874
  H     -663.885     587.148    -626.208
  H     -661.948     582.752    -618.319
  P     -658.477     584.586    -618.992
  C     -656.139     585.588    -619.364
  O     -657.176     584.771    -619.915
  O     -658.195     584.489    -617.531
  O     -659.367     585.855    -619.344
  H     -659.352     586.504    -618.606
  H     -655.324     585.645    -620.055
  H     -655.798     585.159    -618.445
  H     -656.519     586.571    -619.179

 6  7  8  9  10  11  12  13  14  15  25  28  32  33  34  35 0
 6-311+G(2d,p)
 ****
 36  39  40 0
 6-311+G(2d,p)
 ****
 1  2  3  4  5  16  17  18  19  20  21  22  23  24 0
 3-21G
 ****
 26  27  29  30  31  37  38  41  42  43  44  45  46  47 0
 3-21G
 ****
 48 0
 3-21G
 ****


