%nproc=1
%NoSave
%Mem=1900MB
#P OB98/GEN NMR

erre ene a

0 1
  C      -28.439     -85.563      90.606
  O      -29.553     -84.699      90.435
  P      -30.949     -85.355      89.992
  C      -30.751     -84.960      87.421
  O      -31.395     -84.616      88.636
  C      -30.537     -83.715      86.555
  O      -29.743     -84.087      85.397
  C      -31.826     -83.067      86.030
  O      -31.578     -81.660      85.942
  C      -31.961     -83.653      84.635
  O      -32.784     -82.859      83.786
  C      -30.495     -83.722      84.217
  N      -28.339     -84.604      79.726
  C      -28.430     -83.428      80.449
  N      -27.804     -82.351      79.922
  N      -29.070     -83.318      81.582
  C      -29.633     -84.482      81.989
  C      -29.646     -85.698      81.345
  C      -28.900     -85.816      80.113
  O      -28.720     -86.854      79.485
  N      -30.392     -86.620      82.028
  C      -30.764     -85.987      83.122
  N      -30.287     -84.703      83.167
  O      -31.971     -84.793      91.082
  O      -30.965     -86.849      89.900
  H      -32.929     -83.359      82.956
  H      -32.076     -85.423      91.824
  H      -27.815     -84.632      78.870
  H      -31.366     -86.403      83.915
  H      -30.112     -82.759      83.854
  H      -32.403     -84.655      84.694
  H      -27.267     -82.372      79.070
  H      -32.700     -83.264      86.658
  H      -27.828     -81.483      80.448
  H      -29.952     -82.991      87.131
  H      -31.387     -85.661      86.870
  H      -29.796     -85.452      87.638
  P      -32.668     -80.664      86.571
  C      -32.578     -79.013      84.575
  O      -32.399     -79.209      85.965
  O      -32.184     -80.522      88.092
  O      -34.078     -81.156      86.501
  H      -32.958     -80.394      88.671
  H      -32.754     -77.950      84.386
  H      -33.432     -79.584      84.192
  H      -31.672     -79.320      84.044
  H      -27.585     -84.990      90.900
  H      -28.232     -86.065      89.684
  H      -28.661     -86.286      91.363

 3  4  5  6  7  8  9  10  11  12  23  26  30  31 0
 6-311+G(2d,p)
 ****
 33  35  36  37  38 0
 6-311+G(2d,p)
 ****
 1  2  13  14  15  16  17  18  19  20  21  22  24  25 0
 3-21G
 ****
 27  28  29  32  34  39  40  41  42  43  44  45  46  47  48  49 0
 3-21G
 ****


