%nproc=1
%NoSave
%Mem=1900MB
#P OB98/GEN NMR

erre ene a

0 1
  C      -75.335      27.615       2.115
  O      -75.151      28.459       3.233
  H      -74.364      27.211       1.819
  H      -75.747      28.180       1.277
  H      -75.999      26.781       2.362
  P      -76.440      29.080       3.953
  C      -76.428      31.281       2.612
  O      -77.127      30.075       2.900
  C      -77.409      32.347       2.133
  O      -78.215      31.836       1.046
  C      -78.395      32.804       3.203
  O      -77.769      33.667       4.130
  C      -79.466      33.449       2.336
  O      -79.071      34.766       1.923
  C      -79.503      32.488       1.123
  N      -80.587      31.507       1.208
  C      -81.879      32.012       1.118
  O      -82.128      33.207       0.977
  N      -82.888      31.093       1.240
  C      -82.728      29.768       1.530
  O      -83.656      29.030       1.847
  C      -81.342      29.279       1.541
  C      -80.349      30.160       1.397
  O      -76.210      29.656       5.310
  O      -77.469      27.852       4.006
  H      -77.463      27.465       4.902
  H      -78.837      35.253       2.737
  H      -83.830      31.456       1.224
  H      -81.175      28.223       1.702
  H      -79.318      29.826       1.431
  H      -79.628      33.054       0.190
  H      -80.419      33.550       2.858
  H      -78.828      31.934       3.711
  H      -76.829      33.197       1.751
  H      -75.697      31.077       1.821
  H      -75.899      31.612       3.510
  P      -78.014      33.511       5.704
  C      -79.918      35.225       5.792
  O      -79.545      33.869       6.005
  O      -77.029      34.221       6.572
  O      -77.958      31.929       5.956
  H      -77.313      31.741       6.663
  H      -80.955      35.350       6.022
  H      -79.746      35.486       4.769
  H      -79.333      35.859       6.425

 6  7  8  9  10  11  12  13  14  15  16  27  31  32  33  34  35 0
 6-311+G(2d,p)
 ****
 36  37 0
 6-311+G(2d,p)
 ****
 1  2  3  4  5  17  18  19  20  21  22  23  24  25 0
 3-21G
 ****
 26  28  29  30  38  39  40  41  42  43  44  45 0
 3-21G
 ****


