%nproc=1
%NoSave
%Mem=1900MB
#P OB98/GEN NMR

erre ene a

0 1
  C      242.843     464.761    -589.287
  O      244.109     465.237    -588.826
  P      244.191     466.058    -587.444
  C      244.695     464.106    -585.821
  O      243.762     465.094    -586.240
  C      244.262     463.526    -584.461
  O      243.029     462.763    -584.577
  C      245.279     462.534    -583.892
  O      246.508     463.075    -583.460
  C      244.445     461.771    -582.880
  O      244.369     462.476    -581.639
  C      243.070     461.729    -583.572
  N      242.774     460.411    -584.148
  C      242.622     459.362    -583.259
  O      242.767     459.492    -582.047
  N      242.326     458.143    -583.811
  C      242.210     457.866    -585.152
  O      241.975     456.754    -585.593
  C      242.410     459.019    -586.050
  C      242.682     460.213    -585.531
  O      243.554     467.409    -587.460
  O      245.778     466.196    -587.217
  H      243.964     463.348    -581.814
  H      245.959     467.103    -586.889
  H      242.212     457.368    -583.179
  H      242.339     458.841    -587.117
  H      242.833     461.079    -586.173
  H      242.268     461.956    -582.859
  H      244.884     460.790    -582.663
  H      245.537     461.829    -584.697
  H      244.081     464.351    -583.766
  H      245.685     464.545    -585.747
  H      244.747     463.328    -586.581
  P      247.749     463.338    -584.442
  C      247.716     465.931    -584.320
  O      247.555     464.778    -585.123
  O      248.167     462.217    -585.350
  O      248.932     463.622    -583.404
  H      249.770     463.291    -583.789
  H      247.529     466.817    -584.931
  H      248.719     465.987    -583.911
  H      246.991     465.922    -583.499
  H      242.973     464.241    -590.213
  H      242.182     465.590    -589.433
  H      242.426     464.096    -588.560

 3  4  5  6  7  8  9  10  11  12  13  23  28  29  30  31  32 0
 6-311+G(2d,p)
 ****
 33  34 0
 6-311+G(2d,p)
 ****
 1  2  14  15  16  17  18  19  20  21  22  24  25  26  27 0
 3-21G
 ****
 35  36  37  38  39  40  41  42  43  44  45 0
 3-21G
 ****


