%nproc=1
%NoSave
%Mem=1900MB
#P OB98/GEN NMR

erre ene a

0 1
  C      199.104     771.954     329.134
  O      198.223     771.851     330.250
  P      196.966     770.867     330.331
  C      197.229     768.268     330.229
  O      197.458     769.471     330.930
  C      197.857     767.031     330.905
  O      199.301     767.227     331.040
  C      197.313     766.864     332.331
  O      196.086     766.186     332.545
  C      198.483     766.280     333.114
  O      198.444     764.860     333.189
  C      199.713     766.734     332.336
  N      202.852     767.844     336.225
  C      202.217     766.661     335.922
  N      202.419     765.625     336.792
  N      201.464     766.474     334.879
  C      201.287     767.608     334.138
  C      201.843     768.847     334.347
  C      202.710     769.004     335.483
  O      203.312     770.051     335.796
  N      201.414     769.743     333.406
  C      200.588     769.069     332.642
  N      200.481     767.751     333.043
  O      196.125     770.804     329.096
  O      196.059     771.501     331.502
  H      197.594     764.596     333.567
  H      195.128     771.316     331.270
  H      203.449     767.916     337.045
  H      200.056     769.452     331.777
  H      200.383     765.895     332.140
  H      198.456     766.632     334.162
  H      202.881     765.737     337.679
  H      197.163     767.869     332.737
  H      201.783     764.842     336.684
  H      197.730     766.136     330.297
  H      197.632     768.382     329.226
  H      196.150     768.089     330.130
  P      194.678     766.888     332.888
  C      192.937     768.087     331.444
  O      194.317     767.893     331.709
  O      195.014     767.866     334.112
  O      193.578     765.931     333.273
  H      194.203     768.138     334.568
  H      192.836     768.526     330.429
  H      192.505     768.753     332.185
  H      192.398     767.119     331.458
  H      199.857     772.685     329.341
  H      198.549     772.248     328.268
  H      199.567     771.006     328.956

 3  4  5  6  7  8  9  10  11  12  23  26  30  31 0
 6-311+G(2d,p)
 ****
 33  35  36  37  38 0
 6-311+G(2d,p)
 ****
 1  2  13  14  15  16  17  18  19  20  21  22  24  25 0
 3-21G
 ****
 27  28  29  32  34  39  40  41  42  43  44  45  46  47  48  49 0
 3-21G
 ****


