%nproc=1
%NoSave
%Mem=1900MB
#P OB98/GEN NMR

erre ene a

0 1
  C       31.887     279.812     296.251
  O       33.018     280.400     296.859
  H       31.213     280.607     295.919
  H       31.361     279.186     296.975
  H       32.173     279.213     295.380
  P       34.295     279.484     297.171
  C       36.707     280.011     297.920
  O       35.347     280.418     297.948
  C       37.627     281.162     298.346
  O       37.640     282.166     297.292
  C       37.193     281.859     299.643
  O       38.382     282.332     300.291
  C       36.383     283.025     299.111
  O       36.216     284.026     300.088
  C       37.213     283.413     297.884
  N       36.468     284.242     296.940
  C       36.351     285.592     297.255
  O       36.817     286.085     298.283
  N       35.642     286.355     296.372
  C       34.999     285.898     295.257
  O       34.350     286.626     294.519
  C       35.119     284.456     294.999
  C       35.838     283.702     295.835
  O       34.861     278.742     296.006
  O       33.796     278.492     298.328
  H       37.074     284.456     300.288
  H       34.270     277.638     298.264
  H       35.560     287.339     296.579
  H       34.610     284.058     294.129
  H       35.940     282.636     295.670
  H       38.117     283.969     298.181
  H       35.387     282.695     298.810
  H       36.625     281.211     300.313
  H       38.653     280.775     298.429
  H       36.948     279.707     296.894
  H       36.844     279.156     298.587
  P       39.092     281.510     301.477
  C       41.355     281.694     302.701
  O       40.276     282.404     302.089
  O       39.507     280.123     301.098
  O       38.012     281.472     302.655
  H       38.143     280.671     303.202
  H       42.078     282.392     303.069
  H       41.815     281.052     301.979
  H       40.980     281.107     303.513

 6  7  8  9  10  11  12  13  14  15  16  26  31  32  33  34  35 0
 6-311+G(2d,p)
 ****
 36  37 0
 6-311+G(2d,p)
 ****
 1  2  3  4  5  17  18  19  20  21  22  23  24  25 0
 3-21G
 ****
 27  28  29  30  38  39  40  41  42  43  44  45 0
 3-21G
 ****


