%nproc=1
%NoSave
%Mem=1900MB
#P OB98/GEN NMR

erre ene a

0 1
  C       77.039      92.110     -81.584
  O       77.240      91.436     -80.356
  P       75.995      91.128     -79.398
  C       76.140      93.419     -78.173
  O       76.192      92.013     -78.077
  C       76.443      94.079     -76.821
  O       76.417      95.515     -77.012
  C       75.426      93.786     -75.723
  O       76.021      94.089     -74.460
  C       74.340      94.793     -76.028
  O       73.498      95.036     -74.906
  C       75.149      96.018     -76.527
  N       74.439      96.734     -77.602
  C       73.095      97.025     -77.382
  O       72.522      96.779     -76.322
  N       72.410      97.530     -78.453
  C       72.926      97.718     -79.701
  O       72.243      97.872     -80.707
  C       74.391      97.622     -79.804
  C       75.069      97.116     -78.771
  O       76.288      89.635     -78.905
  O       74.659      91.246     -80.046
  H       72.839      95.714     -75.185
  H       75.794      88.996     -79.452
  H       71.407      97.605     -78.337
  H       74.856      97.909     -80.736
  H       76.145      96.984     -78.837
  H       75.340      96.729     -75.715
  H       73.709      94.406     -76.837
  H       75.044      92.761     -75.726
  H       77.452      93.799     -76.498
  H       75.153      93.720     -78.537
  H       76.865      93.777     -78.913
  P       76.348      92.869     -73.473
  C       74.061      93.390     -72.430
  O       75.415      93.069     -72.184
  O       77.793      92.627     -73.188
  O       75.669      91.617     -74.209
  H       76.049      90.788     -73.866
  H       73.452      93.004     -71.608
  H       73.708      92.953     -73.369
  H       73.950      94.476     -72.473
  H       77.977      92.226     -82.085
  H       76.613      93.073     -81.396
  H       76.375      91.540     -82.199

 3  4  5  6  7  8  9  10  11  12  13  23  28  29  30  31  32 0
 6-311+G(2d,p)
 ****
 33  34 0
 6-311+G(2d,p)
 ****
 1  2  14  15  16  17  18  19  20  21  22  24  25  26  27 0
 3-21G
 ****
 35  36  37  38  39  40  41  42  43  44  45 0
 3-21G
 ****


