%nproc=1
%NoSave
%Mem=1900MB
#P OB98/GEN NMR

erre ene a

0 1
  C     -959.502     815.753     311.776
  O     -959.726     816.548     310.624
  P     -961.145     816.409     309.881
  C     -962.117     814.964     307.976
  O     -961.074     815.135     308.910
  C     -961.815     813.775     307.046
  O     -960.734     814.099     306.154
  C     -961.425     812.498     307.801
  O     -961.899     811.346     307.086
  C     -959.913     812.486     307.703
  O     -959.371     811.173     307.853
  C     -959.700     813.101     306.304
  N     -954.749     812.093     306.200
  C     -955.825     811.229     306.130
  N     -955.535     809.901     306.142
  N     -957.074     811.619     306.082
  C     -957.219     812.970     306.094
  C     -956.221     813.934     306.146
  C     -954.855     813.487     306.221
  O     -953.846     814.184     306.311
  N     -956.754     815.179     306.124
  C     -958.065     815.004     306.105
  N     -958.391     813.663     306.120
  O     -961.118     817.667     308.869
  O     -962.333     816.479     310.797
  H     -958.420     811.217     307.620
  H     -961.726     818.366     309.196
  H     -953.812     811.744     306.247
  H     -958.818     815.798     306.089
  H     -959.877     812.354     305.509
  H     -959.472     813.129     308.484
  H     -954.593     809.523     306.236
  H     -961.768     812.444     308.837
  H     -956.312     809.238     306.139
  H     -962.710     813.590     306.422
  H     -962.216     815.860     307.363
  H     -963.064     814.801     308.489
  P     -962.307     810.072     307.973
  C     -960.883     807.971     308.578
  O     -960.918     809.370     308.402
  O     -962.946     809.062     306.908
  O     -963.237     810.397     309.104
  H     -963.576     808.466     307.365
  H     -960.209     807.543     307.839
  H     -961.881     807.502     308.477
  H     -960.501     807.756     309.576
  H     -958.523     815.950     312.160
  H     -959.582     814.718     311.516
  H     -960.232     815.991     312.521

 3  4  5  6  7  8  9  10  11  12  23  26  30  31 0
 6-311+G(2d,p)
 ****
 33  35  36  37  38 0
 6-311+G(2d,p)
 ****
 1  2  13  14  15  16  17  18  19  20  21  22  24  25 0
 3-21G
 ****
 27  28  29  32  34  39  40  41  42  43  44  45  46  47  48  49 0
 3-21G
 ****


