%nproc=1
%NoSave
%Mem=1900MB
#P OB98/GEN NMR

erre ene a

0 1
  C     -300.634     183.044     -83.882
  O     -301.917     182.451     -83.818
  H     -300.344     183.359     -82.878
  H     -300.662     183.921     -84.533
  H     -299.900     182.324     -84.255
  P     -302.455     181.750     -85.162
  C     -303.099     179.402     -84.182
  O     -303.525     180.661     -84.675
  C     -302.697     179.510     -82.712
  O     -303.849     179.939     -81.945
  C     -302.199     178.196     -82.111
  O     -301.138     178.485     -81.199
  C     -303.404     177.671     -81.353
  O     -303.028     176.774     -80.309
  C     -304.074     178.973     -80.898
  N     -305.500     178.801     -80.631
  C     -305.918     178.975     -79.306
  O     -305.097     179.236     -78.427
  N     -307.246     178.804     -79.003
  C     -308.073     178.424     -79.925
  N     -309.372     178.252     -79.556
  C     -307.667     178.178     -81.323
  C     -306.381     178.395     -81.605
  O     -301.188     180.873     -85.598
  O     -302.936     182.706     -86.200
  H     -302.381     177.238     -79.732
  H     -300.746     180.431     -84.854
  H     -308.394     177.847     -82.053
  H     -306.001     178.245     -82.608
  H     -303.594     179.353     -79.984
  H     -304.066     177.124     -82.040
  H     -301.851     177.481     -82.856
  H     -301.943     180.300     -82.619
  H     -309.606     178.413     -78.585
  H     -302.252     179.033     -84.768
  H     -310.088     177.908     -80.177
  H     -303.929     178.696     -84.298
  P     -299.651     178.004     -81.546
  C     -297.576     179.207     -80.595
  O     -298.685     178.362     -80.314
  O     -299.134     178.400     -82.889
  O     -299.761     176.403     -81.436
  H     -299.214     176.017     -82.147
  H     -297.015     179.369     -79.699
  H     -297.928     180.145     -80.969
  H     -296.951     178.743     -81.328

 6  7  8  9  10  11  12  13  14  15  16  26  30  31  32  33  35 0
 6-311+G(2d,p)
 ****
 37  38 0
 6-311+G(2d,p)
 ****
 1  2  3  4  5  17  18  19  20  21  22  23  24  25 0
 3-21G
 ****
 27  28  29  34  36  39  40  41  42  43  44  45  46 0
 3-21G
 ****


