%nproc=1
%NoSave
%Mem=1900MB
#P OB98/GEN NMR

erre ene a

0 1
  C     -370.771      79.359     166.465
  O     -369.671      78.823     165.755
  H     -370.730      79.047     167.512
  H     -370.720      80.450     166.420
  H     -371.711      79.029     166.012
  P     -369.576      77.223     165.680
  C     -368.662      76.784     163.291
  O     -368.368      76.895     164.674
  C     -367.382      76.894     162.470
  O     -366.883      78.247     162.503
  C     -366.230      76.026     162.965
  O     -366.368      74.675     162.542
  C     -365.049      76.703     162.287
  O     -364.977      76.295     160.908
  C     -365.438      78.187     162.372
  N     -361.734      81.408     163.836
  C     -362.129      80.973     162.615
  N     -363.136      80.131     162.306
  C     -363.789      79.745     163.413
  C     -363.524      80.120     164.722
  C     -362.438      80.992     164.920
  N     -362.009      81.374     166.184
  N     -364.406      79.503     165.596
  C     -365.165      78.754     164.827
  N     -364.840      78.871     163.503
  O     -370.888      76.830     164.843
  O     -369.530      76.526     166.999
  H     -364.683      75.365     160.903
  H     -371.597      76.573     165.462
  H     -361.548      81.346     161.778
  H     -365.965      78.113     165.185
  H     -365.172      78.743     161.467
  H     -364.088      76.459     162.747
  H     -366.109      76.098     164.055
  H     -367.625      76.658     161.424
  H     -369.349      77.587     162.996
  H     -361.016      81.580     166.224
  H     -362.396      80.828     166.943
  H     -369.147      75.818     163.111
  P     -366.723      73.577     163.652
  C     -368.160      72.405     161.843
  O     -367.173      72.254     162.860
  O     -368.088      74.132     164.277
  O     -365.690      73.380     164.711
  H     -367.995      74.239     165.246
  H     -368.365      71.453     161.400
  H     -367.799      73.077     161.093
  H     -369.057      72.799     162.273

 6  7  8  9  10  11  12  13  14  15  25  28  32  33  34  35 0
 6-311+G(2d,p)
 ****
 36  39  40 0
 6-311+G(2d,p)
 ****
 1  2  3  4  5  16  17  18  19  20  21  22  23  24 0
 3-21G
 ****
 26  27  29  30  31  37  38  41  42  43  44  45  46  47  48 0
 3-21G
 ****


