%nproc=1
%NoSave
%Mem=1900MB
#P OB98/GEN NMR

erre ene a

0 1
  C      376.702    -247.571     122.595
  O      377.064    -248.045     121.312
  H      377.464    -246.862     122.932
  H      376.646    -248.392     123.312
  H      375.741    -247.054     122.544
  P      376.261    -249.301     120.717
  C      374.942    -247.550     119.358
  O      374.863    -248.703     120.192
  C      373.724    -247.445     118.442
  O      373.761    -248.464     117.421
  C      372.394    -247.653     119.150
  O      372.054    -246.647     120.077
  C      371.461    -247.938     117.984
  O      371.002    -246.746     117.349
  C      372.394    -248.722     117.029
  N      372.097    -250.151     117.014
  C      371.042    -250.545     116.201
  O      370.363    -249.761     115.540
  N      370.763    -251.884     116.195
  C      371.394    -252.835     116.942
  O      371.082    -254.020     116.907
  C      372.476    -252.352     117.814
  C      372.777    -251.052     117.808
  O      376.111    -250.472     121.643
  O      377.038    -249.646     119.363
  H      370.423    -246.288     117.989
  H      376.794    -250.545     119.031
  H      370.011    -252.194     115.600
  H      372.989    -253.078     118.429
  H      373.575    -250.671     118.441
  H      372.290    -248.345     116.004
  H      370.577    -248.501     118.293
  H      372.457    -248.583     119.731
  H      373.759    -246.472     117.941
  H      375.846    -247.644     118.745
  H      375.027    -246.654     119.980
  P      371.148    -246.895     121.363
  C      373.079    -247.624     122.967
  O      371.875    -247.976     122.298
  O      369.679    -247.042     121.130
  O      371.377    -245.528     122.191
  H      370.539    -245.329     122.653
  H      373.424    -248.458     123.542
  H      372.896    -246.793     123.616
  H      373.823    -247.356     122.246

 6  7  8  9  10  11  12  13  14  15  16  26  31  32  33  34  35 0
 6-311+G(2d,p)
 ****
 36  37 0
 6-311+G(2d,p)
 ****
 1  2  3  4  5  17  18  19  20  21  22  23  24  25 0
 3-21G
 ****
 27  28  29  30  38  39  40  41  42  43  44  45 0
 3-21G
 ****


