%nproc=1
%NoSave
%Mem=1900MB
#P OB98/GEN NMR

erre ene a

0 1
  C      -28.853     -86.461      48.219
  O      -29.040     -85.179      47.624
  P      -29.900     -84.894      46.313
  C      -30.478     -82.412      46.959
  O      -29.898     -83.321      46.033
  C      -29.487     -82.054      48.077
  O      -28.325     -81.401      47.480
  C      -30.080     -81.076      49.098
  O      -29.752     -81.392      50.446
  C      -29.629     -79.724      48.572
  O      -29.665     -78.697      49.551
  C      -28.256     -80.051      47.992
  N      -25.984     -75.625      46.855
  C      -26.343     -76.132      48.086
  N      -26.080     -75.359      49.160
  N      -26.925     -77.290      48.252
  C      -27.202     -77.927      47.094
  C      -26.910     -77.520      45.812
  C      -26.220     -76.259      45.642
  O      -25.861     -75.772      44.575
  N      -27.338     -78.438      44.887
  C      -27.903     -79.386      45.605
  N      -27.839     -79.125      46.954
  O      -31.217     -85.589      46.232
  O      -28.977     -85.467      45.121
  H      -29.037     -78.935      50.257
  H      -29.590     -85.793      44.431
  H      -25.517     -74.737      46.787
  H      -28.359     -80.284      45.205
  H      -27.470     -80.022      48.750
  H      -30.322     -79.431      47.774
  H      -25.749     -74.409      49.095
  H      -31.175     -81.119      49.085
  H      -26.542     -75.633      50.028
  H      -29.147     -82.978      48.556
  H      -31.346     -82.927      47.383
  H      -30.839     -81.518      46.449
  P      -30.633     -81.189      51.761
  C      -30.358     -83.130      53.414
  O      -29.872     -81.869      52.995
  O      -31.905     -82.138      51.559
  O      -31.072     -79.783      52.006
  H      -32.720     -81.598      51.546
  H      -29.945     -83.355      54.400
  H      -30.034     -83.901      52.709
  H      -31.449     -83.124      53.478
  H      -28.234     -86.365      49.086
  H      -28.382     -87.115      47.515
  H      -29.803     -86.865      48.502

 3  4  5  6  7  8  9  10  11  12  23  26  30  31 0
 6-311+G(2d,p)
 ****
 33  35  36  37  38 0
 6-311+G(2d,p)
 ****
 1  2  13  14  15  16  17  18  19  20  21  22  24  25 0
 3-21G
 ****
 27  28  29  32  34  39  40  41  42  43  44  45  46  47  48  49 0
 3-21G
 ****


