%nproc=1
%NoSave
%Mem=1900MB
#P OB98/GEN NMR

erre ene a

0 1
  C       65.624    -133.975     172.191
  O       65.031    -133.034     173.062
  H       66.710    -133.934     172.318
  H       65.386    -133.730     171.154
  H       65.284    -134.989     172.420
  P       63.436    -133.030     173.224
  C       63.219    -131.410     171.229
  O       62.909    -131.651     172.596
  C       61.984    -130.882     170.502
  O       62.311    -130.565     169.132
  C       60.831    -131.880     170.433
  O       60.164    -131.967     171.678
  C       60.008    -131.281     169.302
  O       59.208    -130.187     169.775
  C       61.117    -130.781     168.345
  N       61.380    -131.700     167.237
  C       60.347    -131.877     166.322
  O       59.248    -131.336     166.437
  N       60.615    -132.720     165.276
  C       61.758    -133.450     165.106
  O       61.927    -134.234     164.177
  C       62.800    -133.248     166.124
  C       62.568    -132.397     167.123
  O       62.920    -133.332     174.592
  O       62.948    -134.119     172.157
  H       58.547    -130.566     170.387
  H       62.748    -134.960     172.610
  H       59.874    -132.871     164.610
  H       63.716    -133.813     166.025
  H       63.323    -132.238     167.886
  H       60.841    -129.806     167.921
  H       59.322    -132.000     168.854
  H       61.199    -132.864     170.117
  H       61.667    -129.954     170.996
  H       63.539    -132.351     170.769
  H       64.041    -130.688     171.173
  P       59.737    -133.386     172.280
  C       57.313    -132.726     171.769
  O       58.199    -133.276     172.736
  O       60.657    -133.941     173.317
  O       59.666    -134.346     171.001
  H       60.435    -134.947     170.994
  H       56.321    -132.697     172.170
  H       57.324    -133.334     170.888
  H       57.627    -131.733     171.522

 6  7  8  9  10  11  12  13  14  15  16  26  31  32  33  34  35 0
 6-311+G(2d,p)
 ****
 36  37 0
 6-311+G(2d,p)
 ****
 1  2  3  4  5  17  18  19  20  21  22  23  24  25 0
 3-21G
 ****
 27  28  29  30  38  39  40  41  42  43  44  45 0
 3-21G
 ****


