%nproc=1
%NoSave
%Mem=1900MB
#P OB98/GEN NMR

erre ene a

0 1
  C     -964.651    -899.370    -649.773
  O     -965.137    -898.090    -650.130
  H     -964.226    -899.840    -650.667
  H     -965.471    -900.000    -649.403
  H     -963.867    -899.290    -649.013
  P     -965.645    -897.160    -648.920
  C     -963.195    -896.420    -648.346
  O     -964.512    -896.040    -648.728
  C     -962.239    -895.230    -648.417
  O     -961.910    -894.970    -649.791
  C     -962.832    -893.940    -647.807
  O     -961.787    -893.210    -647.188
  C     -963.326    -893.170    -649.042
  O     -963.410    -891.780    -648.799
  C     -962.258    -893.560    -650.084
  N     -962.725    -893.400    -651.447
  C     -962.662    -892.090    -651.998
  O     -962.244    -891.160    -651.301
  N     -963.121    -891.880    -653.256
  C     -963.645    -892.870    -653.924
  N     -964.101    -892.580    -655.169
  C     -963.777    -894.250    -653.390
  C     -963.277    -894.430    -652.162
  O     -965.465    -898.120    -647.664
  O     -967.033    -896.620    -649.104
  H     -962.494    -891.430    -648.604
  H     -964.615    -898.600    -647.656
  H     -964.235    -895.020    -653.979
  H     -963.313    -895.410    -651.704
  H     -961.328    -892.980    -649.948
  H     -964.288    -893.520    -649.356
  H     -963.644    -894.130    -647.104
  H     -961.303    -895.490    -647.908
  H     -964.022    -891.620    -655.493
  H     -962.810    -897.210    -648.989
  H     -964.588    -893.250    -655.757
  H     -963.235    -896.810    -647.330
  P     -962.131    -892.230    -645.955
  C     -961.812    -893.390    -643.644
  O     -961.212    -892.610    -644.681
  O     -963.566    -892.050    -645.645
  O     -961.476    -890.840    -646.430
  H     -962.088    -890.120    -646.180
  H     -961.095    -893.566    -642.870
  H     -962.140    -894.326    -644.046
  H     -962.651    -892.862    -643.240

 6  7  8  9  10  11  12  13  14  15  16  26  30  31  32  33  35 0
 6-311+G(2d,p)
 ****
 37  38 0
 6-311+G(2d,p)
 ****
 1  2  3  4  5  17  18  19  20  21  22  23  24  25 0
 3-21G
 ****
 27  28  29  34  36  39  40  41  42  43  44  45  46 0
 3-21G
 ****


