%nproc=1
%NoSave
%Mem=1900MB
#P OB98/GEN NMR

erre ene a

0 1
  C     -274.828     234.972    -231.459
  O     -275.795     234.652    -230.478
  H     -275.322     235.030    -232.433
  H     -274.054     234.204    -231.505
  H     -274.376     235.945    -231.240
  P     -275.309     234.432    -228.969
  C     -275.873     231.906    -228.907
  O     -276.167     233.200    -228.397
  C     -277.150     231.074    -229.034
  O     -277.536     230.559    -227.743
  C     -278.355     231.857    -229.548
  O     -278.245     232.082    -230.936
  C     -279.483     230.941    -229.119
  O     -279.612     229.826    -230.017
  C     -278.982     230.467    -227.732
  N     -279.541     231.228    -226.619
  C     -280.732     230.745    -226.069
  O     -281.261     229.733    -226.533
  N     -281.300     231.430    -225.023
  C     -280.711     232.483    -224.535
  N     -281.322     233.108    -223.495
  C     -279.436     233.005    -225.059
  C     -278.921     232.350    -226.099
  O     -275.306     235.646    -228.091
  O     -273.841     233.811    -229.124
  H     -280.241     229.210    -229.591
  H     -273.168     234.515    -229.083
  H     -278.978     233.878    -224.622
  H     -277.982     232.670    -226.547
  H     -279.233     229.409    -227.574
  H     -280.451     231.447    -229.100
  H     -278.451     232.805    -229.004
  H     -276.932     230.216    -229.683
  H     -282.186     232.703    -223.159
  H     -275.183     231.428    -228.206
  H     -280.880     233.828    -222.941
  H     -275.375     231.978    -229.880
  P     -278.795     233.427    -231.622
  C     -280.778     232.233    -232.742
  O     -279.569     232.956    -232.945
  O     -277.773     234.489    -231.835
  O     -279.988     233.878    -230.662
  H     -279.628     234.300    -229.838
  H     -281.202     231.974    -233.690
  H     -281.469     232.840    -232.196
  H     -280.572     231.341    -232.188

 6  7  8  9  10  11  12  13  14  15  16  26  30  31  32  33  35 0
 6-311+G(2d,p)
 ****
 37  38 0
 6-311+G(2d,p)
 ****
 1  2  3  4  5  17  18  19  20  21  22  23  24  25 0
 3-21G
 ****
 27  28  29  34  36  39  40  41  42  43  44  45  46 0
 3-21G
 ****


