%nproc=1
%NoSave
%Mem=1900MB
#P OB98/GEN NMR

erre ene a

0 1
  C     1045.530     -35.080    1214.078
  O     1044.490     -36.004    1214.358
  P     1043.100     -35.431    1214.919
  C     1041.880     -36.152    1212.684
  O     1042.207     -35.125    1213.612
  C     1040.369     -36.151    1212.423
  O     1039.955     -34.890    1211.886
  C     1039.904     -37.205    1211.418
  O     1039.867     -38.512    1211.990
  C     1038.552     -36.653    1211.011
  O     1037.553     -36.971    1211.994
  C     1038.826     -35.132    1211.014
  N     1039.058     -34.575    1209.678
  C     1037.927     -34.119    1209.006
  O     1036.776     -34.180    1209.482
  N     1038.132     -33.623    1207.740
  C     1039.342     -33.599    1207.075
  O     1039.461     -33.178    1205.951
  C     1040.480     -34.109    1207.841
  C     1040.299     -34.567    1209.078
  O     1043.543     -33.989    1215.454
  O     1042.459     -36.322    1215.940
  H     1044.338     -33.652    1214.973
  H     1037.379     -37.922    1211.931
  H     1037.341     -33.274    1207.243
  H     1041.455     -34.111    1207.358
  H     1041.125     -34.980    1209.636
  H     1037.980     -34.583    1211.461
  H     1038.203     -37.033    1210.045
  H     1040.583     -37.202    1210.538
  H     1039.843     -36.299    1213.385
  H     1042.183     -37.123    1213.094
  H     1042.415     -35.970    1211.751
  P     1040.383     -39.715    1211.041
  C     1042.455     -40.289    1212.534
  O     1041.982     -39.841    1211.297
  O     1040.243     -39.055    1209.596
  O     1039.604     -40.984    1211.250
  H     1040.553     -38.135    1209.572
  H     1043.483     -40.632    1212.389
  H     1041.844     -41.117    1212.915
  H     1042.460     -39.477    1213.267
  H     1046.387     -35.607    1213.714
  H     1045.789     -34.553    1214.972
  H     1045.198     -34.384    1213.336

 3  4  5  6  7  8  9  10  11  12  13  24  28  29  30  31  32 0
 6-311+G(2d,p)
 ****
 33  34 0
 6-311+G(2d,p)
 ****
 1  2  14  15  16  17  18  19  20  21  22  23  25  26  27 0
 3-21G
 ****
 35  36  37  38  39  40  41  42  43  44  45 0
 3-21G
 ****


