%nproc=1
%NoSave
%Mem=1900MB
#P OB98/GEN NMR

erre ene a

0 1
  C      -59.464     507.240      41.101
  O      -60.561     507.660      41.902
  P      -61.899     506.772      41.871
  C      -62.800     508.117      39.838
  O      -62.470     506.833      40.372
  C      -64.000     508.027      38.903
  O      -64.425     509.376      38.547
  C      -63.740     507.281      37.596
  O      -64.961     506.620      37.222
  C      -63.464     508.396      36.601
  O      -63.657     507.982      35.253
  C      -64.448     509.454      37.102
  N      -65.373     513.146      33.688
  C      -65.927     511.931      33.866
  N      -65.632     511.006      34.804
  C      -64.636     511.437      35.599
  C      -63.945     512.633      35.514
  C      -64.351     513.528      34.501
  N      -63.791     514.765      34.317
  N      -62.972     512.706      36.487
  C      -63.075     511.571      37.154
  N      -64.077     510.783      36.668
  O      -62.935     507.671      42.701
  O      -61.778     505.407      42.453
  H      -63.114     507.188      35.097
  H      -63.148     507.233      43.553
  H      -66.733     511.670      33.180
  H      -62.446     511.284      37.990
  H      -65.468     509.257      36.774
  H      -62.424     508.734      36.715
  H      -62.925     506.553      37.649
  H      -64.832     507.566      39.447
  H      -61.937     508.488      39.272
  H      -64.230     515.395      33.657
  H      -63.170     515.130      35.032
  H      -63.004     508.816      40.662
  P      -64.836     505.173      36.548
  C      -66.071     506.085      34.463
  O      -64.950     505.387      34.968
  O      -66.216     504.460      36.941
  O      -63.659     504.378      37.022
  H      -66.093     503.496      36.977
  H      -65.772     506.644      33.573
  H      -66.490     506.781      35.198
  H      -66.846     505.365      34.180
  H      -58.650     507.924      41.224
  H      -59.760     507.219      40.073
  H      -59.156     506.261      41.404

 3  4  5  6  7  8  9  10  11  12  22  25  29  30  31  32 0
 6-311+G(2d,p)
 ****
 33  36  37 0
 6-311+G(2d,p)
 ****
 1  2  13  14  15  16  17  18  19  20  21  23  24  26 0
 3-21G
 ****
 27  28  34  35  38  39  40  41  42  43  44  45  46  47  48 0
 3-21G
 ****


