%nproc=1
%NoSave
%Mem=1900MB
#P OB98/GEN NMR

erre ene a

0 1
  C     -403.259     116.149    -377.435
  O     -404.270     117.134    -377.361
  H     -402.891     116.100    -378.464
  H     -403.657     115.169    -377.160
  H     -402.424     116.408    -376.778
  P     -404.976     117.393    -375.947
  C     -407.153     116.107    -375.436
  O     -405.741     116.033    -375.582
  C     -407.828     115.949    -376.792
  O     -407.398     114.732    -377.430
  C     -409.355     115.886    -376.724
  O     -409.901     117.189    -376.612
  C     -409.663     115.218    -378.053
  O     -409.536     116.177    -379.120
  C     -408.535     114.173    -378.144
  N     -410.912     109.751    -378.848
  C     -410.854     110.865    -379.663
  N     -411.567     110.809    -380.808
  N     -410.176     111.946    -379.368
  C     -409.572     111.886    -378.161
  C     -409.571     110.844    -377.261
  C     -410.279     109.633    -377.621
  O     -410.341     108.614    -376.938
  N     -408.901     111.173    -376.110
  C     -408.465     112.399    -376.330
  N     -408.859     112.882    -377.556
  O     -405.837     118.616    -375.848
  O     -403.762     117.426    -374.906
  H     -409.884     115.747    -379.922
  H     -403.440     118.334    -374.767
  H     -411.467     108.956    -379.123
  H     -407.862     112.979    -375.642
  H     -408.220     113.989    -379.175
  H     -410.669     114.805    -378.104
  H     -412.315     110.137    -380.938
  H     -409.697     115.228    -375.918
  H     -411.579     111.634    -381.392
  H     -407.500     116.780    -377.431
  H     -407.391     117.082    -375.000
  H     -407.507     115.324    -374.756
  P     -411.444     117.411    -376.227
  C     -412.743     117.948    -378.397
  O     -412.265     116.937    -377.518
  O     -411.778     118.782    -375.743
  O     -411.764     116.257    -375.170
  H     -411.572     116.515    -374.235
  H     -413.270     117.494    -379.210
  H     -411.916     118.510    -378.777
  H     -413.403     118.601    -377.865

 6  7  8  9  10  11  12  13  14  15  26  29  33  34 0
 6-311+G(2d,p)
 ****
 36  38  39  40  41 0
 6-311+G(2d,p)
 ****
 1  2  3  4  5  16  17  18  19  20  21  22  23  24  25 0
 3-21G
 ****
 27  28  30  31  32  35  37  42  43  44  45  46  47 0
 3-21G
 ****
 48  49 0
 3-21G
 ****


