%nproc=1
%NoSave
%Mem=1900MB
#P OB98/GEN NMR

erre ene a

0 1
  C      112.351    -199.767    -147.379
  O      111.669    -200.083    -146.175
  P      112.555    -200.610    -144.942
  C      112.704    -198.175    -144.042
  O      113.409    -199.350    -144.426
  C      112.563    -198.084    -142.520
  O      113.887    -198.064    -141.927
  C      111.811    -196.842    -142.035
  O      111.028    -197.220    -140.902
  C      112.918    -195.910    -141.581
  O      112.455    -194.969    -140.615
  C      113.959    -196.915    -141.058
  N      115.305    -196.350    -141.032
  C      115.509    -195.243    -140.199
  O      114.558    -194.743    -139.596
  N      116.767    -194.700    -140.115
  C      117.714    -195.153    -140.875
  N      118.946    -194.588    -140.751
  C      117.510    -196.241    -141.854
  C      116.302    -196.800    -141.864
  O      113.650    -201.532    -145.654
  O      111.788    -201.349    -143.895
  H      113.202    -194.372    -140.384
  H      113.914    -202.271    -145.077
  H      118.325    -196.558    -142.491
  H      116.068    -197.619    -142.531
  H      113.700    -197.246    -140.044
  H      113.318    -195.357    -142.439
  H      111.164    -196.412    -142.804
  H      112.063    -198.993    -142.167
  H      119.055    -193.835    -140.083
  H      111.700    -198.206    -144.475
  H      119.742    -194.877    -141.303
  H      113.219    -197.298    -144.436
  P      109.665    -196.416    -140.637
  C      108.224    -198.160    -141.850
  O      108.699    -196.828    -141.849
  O      110.088    -194.926    -141.057
  O      109.082    -196.443    -139.264
  H      109.352    -194.314    -140.879
  H      107.475    -198.264    -142.645
  H      107.755    -198.401    -140.893
  H      109.046    -198.851    -142.053
  H      111.646    -199.431    -148.111
  H      112.855    -200.638    -147.743
  H      113.066    -198.993    -147.191

 3  4  5  6  7  8  9  10  11  12  13  21  23  27  28  29  30  32 0
 6-311+G(2d,p)
 ****
 34  35 0
 6-311+G(2d,p)
 ****
 1  2  14  15  16  17  18  19  20  22  24  25  26 0
 3-21G
 ****
 31  33  36  37  38  39  40  41  42  43  44  45  46 0
 3-21G
 ****


