%nproc=1
%NoSave
%Mem=1900MB
#P OB98/GEN NMR

erre ene a

0 1
  C      587.940     -69.921    -303.159
  O      588.587     -68.640    -303.235
  P      587.785     -67.249    -303.273
  C      587.859     -67.081    -305.846
  O      588.177     -66.452    -304.613
  C      588.539     -66.380    -307.031
  O      587.646     -65.359    -307.587
  C      589.870     -65.691    -306.684
  O      590.746     -65.897    -307.802
  C      589.454     -64.232    -306.575
  O      590.532     -63.321    -306.676
  C      588.443     -64.160    -307.738
  N      587.590     -62.972    -307.749
  C      588.152     -61.778    -308.215
  O      589.326     -61.709    -308.564
  N      587.336     -60.663    -308.291
  C      586.106     -60.730    -307.899
  N      585.366     -59.588    -308.003
  C      585.484     -61.954    -307.379
  C      586.272     -63.032    -307.333
  O      587.944     -66.432    -302.029
  O      586.249     -67.645    -303.492
  H      585.688     -67.026    -302.999
  H      590.847     -63.339    -307.602
  H      584.450     -61.971    -307.073
  H      585.888     -63.985    -306.983
  H      588.983     -64.242    -308.684
  H      588.967     -64.077    -305.600
  H      590.351     -66.083    -305.786
  H      588.688     -67.124    -307.824
  H      585.820     -58.760    -308.374
  H      586.768     -67.045    -305.991
  H      584.399     -59.526    -307.745
  H      588.159     -68.134    -305.798
  P      591.780     -67.127    -307.790
  C      593.723     -65.920    -309.027
  O      592.764     -66.949    -309.042
  O      590.857     -68.346    -308.262
  O      592.410     -67.442    -306.466
  H      591.222     -69.185    -307.919
  H      594.682     -66.316    -309.385
  H      593.879     -65.500    -308.032
  H      593.408     -65.115    -309.702
  H      588.680     -70.694    -303.147
  H      587.303     -70.050    -304.009
  H      587.355     -69.973    -302.265

 3  4  5  6  7  8  9  10  11  12  13  24  27  28  29  30  32 0
 6-311+G(2d,p)
 ****
 34  35 0
 6-311+G(2d,p)
 ****
 1  2  14  15  16  17  18  19  20  21  22  23  25  26 0
 3-21G
 ****
 31  33  36  37  38  39  40  41  42  43  44  45  46 0
 3-21G
 ****


