%nproc=1
%NoSave
%Mem=1900MB
#P OB98/GEN NMR

erre ene a

0 1
  C     -125.159    -487.416     189.070
  O     -125.146    -486.158     189.725
  P     -126.480    -485.264     189.650
  C     -127.705    -483.942     187.775
  O     -126.608    -484.774     188.130
  C     -127.239    -482.823     186.849
  O     -126.294    -483.325     185.875
  C     -128.355    -482.189     186.026
  O     -129.082    -481.223     186.766
  C     -127.558    -481.517     184.920
  O     -127.013    -480.271     185.392
  C     -126.438    -482.535     184.669
  N     -125.224    -483.626     179.875
  C     -124.599    -482.791     180.776
  N     -123.533    -482.099     180.314
  N     -124.981    -482.640     182.023
  C     -126.065    -483.385     182.339
  C     -126.771    -484.255     181.537
  C     -126.347    -484.398     180.161
  O     -126.893    -485.085     179.301
  N     -127.805    -484.838     182.218
  C     -127.733    -484.328     183.435
  N     -126.720    -483.410     183.544
  O     -126.073    -483.926     190.435
  O     -127.696    -485.906     190.225
  H     -126.520    -479.881     184.643
  H     -126.872    -483.430     190.681
  H     -124.898    -483.696     178.929
  H     -128.394    -484.577     184.249
  H     -125.479    -482.046     184.483
  H     -128.170    -481.285     184.040
  H     -123.230    -482.121     179.353
  H     -129.015    -482.950     185.593
  H     -123.092    -481.428     180.937
  H     -126.730    -482.066     187.457
  H     -128.133    -483.514     188.680
  H     -128.472    -484.550     187.281
  P     -130.632    -481.032     186.382
  C     -131.787    -480.297     184.172
  O     -130.628    -480.248     184.984
  O     -131.136    -479.944     187.436
  O     -131.437    -482.289     186.433
  H     -132.096    -480.034     187.589
  H     -131.718    -479.510     183.415
  H     -132.690    -480.130     184.767
  H     -131.849    -481.267     183.673
  H     -124.212    -487.897     189.202
  H     -125.343    -487.273     188.026
  H     -125.931    -488.028     189.488

 3  4  5  6  7  8  9  10  11  12  23  26  30  31 0
 6-311+G(2d,p)
 ****
 33  35  36  37  38 0
 6-311+G(2d,p)
 ****
 1  2  13  14  15  16  17  18  19  20  21  22  24  25 0
 3-21G
 ****
 27  28  29  32  34  39  40  41  42  43  44  45  46  47  48  49 0
 3-21G
 ****


