%nproc=1
%NoSave
%Mem=1900MB
#P OB98/GEN NMR

erre ene a

0 1
  C      -96.993     444.583     -12.001
  O      -97.740     443.635     -12.729
  H      -97.412     445.574     -12.184
  H      -95.954     444.572     -12.344
  H      -97.025     444.381     -10.927
  P      -97.651     442.094     -12.308
  C      -95.262     441.551     -13.116
  O      -96.654     441.353     -13.324
  C      -94.427     440.908     -14.224
  O      -94.583     439.474     -14.181
  C      -94.864     441.356     -15.622
  O      -94.251     442.554     -16.074
  C      -94.442     440.168     -16.481
  O      -93.084     440.301     -16.930
  C      -94.576     438.977     -15.526
  N      -96.667     434.950     -17.883
  C      -95.413     435.503     -18.060
  N      -94.642     434.930     -19.011
  N      -94.975     436.530     -17.379
  C      -95.894     437.054     -16.538
  C      -97.175     436.606     -16.293
  C      -97.623     435.423     -16.998
  O      -98.718     434.889     -16.864
  N      -97.833     437.420     -15.403
  C      -96.982     438.404     -15.179
  N      -95.765     438.183     -15.783
  O      -99.083     441.509     -12.738
  O      -97.393     441.838     -10.854
  H      -93.066     440.979     -17.636
  H      -99.335     440.787     -12.132
  H      -96.937     434.143     -18.418
  H      -97.178     439.270     -14.557
  H      -93.717     438.298     -15.610
  H      -95.067     440.094     -17.376
  H      -94.959     434.195     -19.622
  H      -95.953     441.449     -15.679
  H      -93.794     435.420     -19.304
  H      -93.366     441.124     -14.047
  H      -95.024     441.092     -12.155
  H      -95.036     442.619     -13.034
  P      -94.963     443.481     -17.165
  C      -94.141     442.546     -19.478
  O      -94.044     443.524     -18.466
  O      -94.807     444.947     -16.546
  O      -96.390     443.144     -17.458
  H      -95.628     445.220     -16.097
  H      -93.438     442.765     -20.254
  H      -95.131     442.549     -19.883
  H      -93.927     441.582     -19.065

 6  7  8  9  10  11  12  13  14  15  26  29  33  34 0
 6-311+G(2d,p)
 ****
 36  38  39  40  41 0
 6-311+G(2d,p)
 ****
 1  2  3  4  5  16  17  18  19  20  21  22  23  24  25 0
 3-21G
 ****
 27  28  30  31  32  35  37  42  43  44  45  46  47 0
 3-21G
 ****
 48  49 0
 3-21G
 ****


