%nproc=1
%NoSave
%Mem=1900MB
#P OB98/GEN NMR

erre ene a

0 1
  C     -111.063      86.822     186.528
  O     -112.128      87.601     185.986
  P     -112.387      87.547     184.405
  C     -114.921      87.084     184.564
  O     -113.655      86.602     184.127
  C     -115.436      86.252     185.752
  O     -114.570      86.480     186.895
  C     -116.850      86.607     186.224
  O     -117.952      85.936     185.620
  C     -116.803      86.143     187.677
  O     -117.062      84.728     187.748
  C     -115.364      86.422     188.100
  N     -116.536      88.820     192.463
  C     -116.819      87.580     192.011
  N     -116.470      87.019     190.834
  C     -115.742      87.871     190.098
  C     -115.372      89.163     190.429
  C     -115.803      89.643     191.677
  N     -115.525      90.909     192.134
  N     -114.631      89.734     189.415
  C     -114.573      88.807     188.481
  N     -115.217      87.658     188.850
  O     -111.190      87.282     183.557
  O     -112.983      89.006     184.104
  H     -116.363      84.292     187.224
  H     -112.647      89.313     183.240
  H     -117.407      86.956     192.679
  H     -114.080      88.924     187.527
  H     -114.949      85.622     188.723
  H     -117.564      86.631     188.296
  H     -117.014      87.689     186.185
  H     -115.384      85.187     185.492
  H     -115.637      87.031     183.740
  H     -115.909      91.190     193.023
  H     -115.029      91.555     191.536
  H     -114.802      88.138     184.813
  P     -118.622      86.477     184.270
  C     -118.087      84.327     182.879
  O     -117.875      85.706     183.079
  O     -118.649      87.960     184.127
  O     -120.065      85.787     184.296
  H     -120.050      84.823     184.176
  H     -117.669      84.045     181.909
  H     -119.153      84.091     182.886
  H     -117.576      83.759     183.662
  H     -111.020      86.965     187.588
  H     -110.137      87.129     186.089
  H     -111.233      85.787     186.314

 3  4  5  6  7  8  9  10  11  12  22  25  29  30  31  32 0
 6-311+G(2d,p)
 ****
 33  36  37 0
 6-311+G(2d,p)
 ****
 1  2  13  14  15  16  17  18  19  20  21  23  24  26 0
 3-21G
 ****
 27  28  34  35  38  39  40  41  42  43  44  45  46  47  48 0
 3-21G
 ****


