%nproc=1
%NoSave
%Mem=1900MB
#P OB98/GEN NMR

erre ene a

0 1
  C     -133.762      40.169    -151.241
  O     -135.106      40.026    -151.651
  H     -133.158      40.457    -152.105
  H     -133.393      39.214    -150.859
  H     -133.668      40.940    -150.472
  P     -136.214      39.911    -150.498
  C     -138.095      40.502    -152.181
  O     -137.611      39.577    -151.220
  C     -139.096      39.822    -153.115
  O     -138.367      38.988    -154.053
  C     -140.114      38.930    -152.391
  O     -141.386      39.066    -153.030
  C     -139.576      37.528    -152.615
  O     -140.595      36.532    -152.544
  C     -138.937      37.666    -153.991
  N     -137.194      34.274    -157.287
  C     -138.200      35.213    -157.419
  N     -138.844      35.250    -158.605
  N     -138.543      36.044    -156.469
  C     -137.790      35.918    -155.350
  C     -136.773      35.026    -155.094
  C     -136.423      34.093    -156.144
  O     -135.559      33.224    -156.079
  N     -136.276      35.189    -153.825
  C     -136.991      36.177    -153.316
  N     -137.916      36.655    -154.205
  O     -136.395      41.427    -150.015
  O     -135.862      39.014    -149.359
  H     -140.156      35.657    -152.613
  H     -136.105      41.515    -149.088
  H     -136.981      33.650    -158.045
  H     -136.887      36.574    -152.317
  H     -139.667      37.568    -154.803
  H     -138.821      37.297    -151.852
  H     -138.599      34.675    -159.396
  H     -140.213      39.169    -151.330
  H     -139.559      35.957    -158.738
  H     -139.603      40.595    -153.706
  H     -137.250      40.880    -152.767
  H     -138.576      41.340    -151.667
  P     -142.675      39.151    -152.075
  C     -143.511      41.456    -152.912
  O     -143.780      40.065    -152.799
  O     -142.168      40.061    -150.860
  O     -143.160      37.823    -151.598
  H     -142.047      39.513    -150.063
  H     -144.326      41.937    -153.411
  H     -142.612      41.601    -153.474
  H     -143.392      41.877    -151.935

 6  7  8  9  10  11  12  13  14  15  26  29  33  34 0
 6-311+G(2d,p)
 ****
 36  38  39  40  41 0
 6-311+G(2d,p)
 ****
 1  2  3  4  5  16  17  18  19  20  21  22  23  24  25 0
 3-21G
 ****
 27  28  30  31  32  35  37  42  43  44  45  46  47 0
 3-21G
 ****
 48  49 0
 3-21G
 ****


