%nproc=1
%NoSave
%Mem=1900MB
#P OB98/GEN NMR

erre ene a

0 1
  C     -460.037     705.268     -95.015
  O     -460.818     706.439     -95.110
  H     -459.387     705.206     -95.893
  H     -460.687     704.387     -95.000
  H     -459.414     705.286     -94.118
  P     -461.735     706.821     -93.850
  C     -463.981     707.882     -94.618
  O     -462.607     708.094     -94.291
  C     -464.625     709.192     -95.079
  O     -464.642     710.122     -93.962
  C     -463.888     709.868     -96.239
  O     -464.858     710.444     -97.120
  C     -463.092     710.976     -95.576
  O     -462.792     712.062     -96.455
  C     -464.009     711.347     -94.391
  N     -463.254     711.983     -93.314
  C     -462.500     713.108     -93.663
  O     -462.474     713.507     -94.828
  N     -461.743     713.711     -92.693
  C     -461.678     713.200     -91.499
  N     -460.879     713.828     -90.596
  C     -462.413     711.973     -91.115
  C     -463.175     711.426     -92.056
  O     -460.693     707.439     -92.805
  O     -462.525     705.693     -93.270
  H     -463.584     712.646     -96.499
  H     -460.970     707.262     -91.884
  H     -462.303     711.560     -90.121
  H     -463.754     710.520     -91.870
  H     -464.797     712.033     -94.724
  H     -462.145     710.569     -95.194
  H     -463.250     709.180     -96.804
  H     -465.676     708.988     -95.344
  H     -460.387     714.659     -90.900
  H     -464.501     707.521     -93.727
  H     -460.723     713.483     -89.651
  H     -464.052     707.120     -95.400
  P     -464.900     709.863     -98.623
  C     -465.334     712.035     -99.992
  O     -465.858     710.814     -99.486
  O     -465.729     708.506     -98.462
  O     -463.550     709.624     -99.208
  H     -465.131     707.734     -98.575
  H     -466.095     712.549    -100.542
  H     -464.506     711.828    -100.637
  H     -465.007     712.647     -99.178

 6  7  8  9  10  11  12  13  14  15  16  26  30  31  32  33  35 0
 6-311+G(2d,p)
 ****
 37  38 0
 6-311+G(2d,p)
 ****
 1  2  3  4  5  17  18  19  20  21  22  23  24  25 0
 3-21G
 ****
 27  28  29  34  36  39  40  41  42  43  44  45  46 0
 3-21G
 ****


