%nproc=1
%NoSave
%Mem=1900MB
#P OB98/GEN NMR

erre ene a

0 1
  C     -618.508     227.593     332.291
  O     -617.403     228.471     332.515
  P     -616.421     228.125     333.735
  C     -614.368     228.412     332.128
  O     -615.006     228.775     333.345
  C     -612.976     229.034     332.045
  O     -613.064     230.481     332.087
  C     -612.061     228.651     333.204
  O     -611.583     227.327     333.069
  C     -610.996     229.735     333.091
  O     -610.047     229.400     332.060
  C     -611.825     230.958     332.657
  N     -612.071     231.905     333.741
  C     -611.530     233.179     333.562
  O     -610.861     233.500     332.579
  N     -611.759     234.070     334.574
  C     -612.438     233.813     335.727
  O     -612.630     234.658     336.600
  C     -612.942     232.439     335.884
  C     -612.742     231.562     334.893
  O     -616.208     226.559     333.528
  O     -616.972     228.530     335.062
  H     -616.196     226.292     332.592
  H     -609.645     228.547     332.318
  H     -611.391     235.005     334.460
  H     -613.466     232.190     336.801
  H     -613.099     230.539     334.985
  H     -611.313     231.498     331.845
  H     -610.434     229.872     334.022
  H     -612.591     228.762     334.154
  H     -612.525     228.746     331.092
  H     -614.967     228.757     331.273
  H     -614.314     227.320     332.068
  P     -612.434     226.174     333.799
  C     -610.508     224.563     333.059
  O     -611.413     224.963     334.065
  O     -613.353     225.661     332.602
  O     -613.183     226.655     334.997
  H     -612.872     225.540     331.769
  H     -609.694     223.993     333.525
  H     -610.073     225.427     332.547
  H     -611.017     223.922     332.332
  H     -619.075     227.940     331.453
  H     -619.131     227.575     333.161
  H     -618.145     226.606     332.092

 3  4  5  6  7  8  9  10  11  12  13  24  28  29  30  31  32 0
 6-311+G(2d,p)
 ****
 33  34 0
 6-311+G(2d,p)
 ****
 1  2  14  15  16  17  18  19  20  21  22  23  25  26  27 0
 3-21G
 ****
 35  36  37  38  39  40  41  42  43  44  45 0
 3-21G
 ****


