%nproc=1
%NoSave
%Mem=1900MB
#P OB98/GEN NMR

erre ene a

0 1
  C     -224.208    -899.360      60.598
  O     -223.838    -898.000      60.465
  H     -223.359    -900.000      60.353
  H     -224.503    -899.550      61.634
  H     -225.054    -899.600      59.946
  P     -223.660    -897.430      58.978
  C     -225.145    -895.310      59.174
  O     -225.005    -896.620      58.645
  C     -226.485    -895.160      59.895
  O     -226.461    -895.990      61.102
  C     -226.817    -893.720      60.333
  O     -228.218    -893.500      60.146
  C     -226.511    -893.720      61.820
  O     -227.254    -892.740      62.537
  C     -226.883    -895.160      62.197
  N     -226.865    -894.380      67.213
  C     -227.771    -894.080      66.263
  N     -227.712    -894.370      64.946
  C     -226.627    -895.100      64.660
  C     -225.618    -895.490      65.528
  C     -225.764    -895.080      66.871
  N     -224.804    -895.320      67.845
  N     -224.635    -896.180      64.846
  C     -225.035    -896.200      63.593
  N     -226.232    -895.550      63.427
  O     -223.786    -898.750      58.083
  O     -222.385    -896.700      58.720
  H     -227.278    -891.920      62.005
  H     -222.908    -899.170      57.991
  H     -228.645    -893.510      66.588
  H     -224.483    -896.620      62.765
  H     -227.966    -895.300      62.327
  H     -225.445    -893.530      61.976
  H     -226.246    -892.950      59.791
  H     -227.269    -895.550      59.253
  H     -225.099    -894.580      58.357
  H     -224.948    -894.880      68.740
  H     -223.933    -895.740      67.563
  H     -224.313    -895.110      59.868
  P     -228.669    -892.680      58.841
  C     -230.931    -893.780      58.164
  O     -229.542    -893.650      57.904
  O     -227.297    -892.520      58.012
  O     -229.295    -891.360      59.130
  H     -227.304    -891.680      57.518
  H     -231.364    -894.457      57.457
  H     -231.401    -892.823      58.076
  H     -231.075    -894.159      59.154

 6  7  8  9  10  11  12  13  14  15  25  28  32  33  34  35 0
 6-311+G(2d,p)
 ****
 36  39  40 0
 6-311+G(2d,p)
 ****
 1  2  3  4  5  16  17  18  19  20  21  22  23  24 0
 3-21G
 ****
 26  27  29  30  31  37  38  41  42  43  44  45  46  47 0
 3-21G
 ****
 48 0
 3-21G
 ****


