%nproc=1
%NoSave
%Mem=1900MB
#P OB98/GEN NMR

erre ene a

0 1
  C      111.416    -398.534       9.422
  O      111.115    -399.930       9.473
  P      109.792    -400.477       8.757
  C      110.813    -402.408       7.371
  O      109.963    -402.042       8.450
  C      111.675    -403.612       7.763
  O      112.600    -403.274       8.825
  C      110.855    -404.770       8.317
  O      110.028    -405.462       7.401
  C      111.904    -405.582       9.059
  O      112.623    -406.443       8.177
  C      112.830    -404.469       9.605
  N      112.631    -404.218      11.032
  C      113.351    -405.030      11.901
  O      114.087    -405.940      11.524
  N      113.172    -404.784      13.237
  C      112.336    -403.850      13.773
  O      112.193    -403.685      14.978
  C      111.579    -403.039      12.804
  C      111.759    -403.257      11.499
  O      109.286    -399.659       7.619
  O      108.720    -400.482       9.955
  H      113.394    -406.788       8.667
  H      107.869    -400.162       9.595
  H      113.692    -405.356      13.881
  H      110.898    -402.291      13.196
  H      111.213    -402.670      10.768
  H      113.884    -404.741       9.458
  H      111.455    -406.214       9.828
  H      110.174    -404.367       9.078
  H      112.266    -403.916       6.897
  H      111.445    -401.562       7.093
  H      110.196    -402.632       6.492
  P      108.440    -405.266       7.336
  C      108.227    -406.370       4.999
  O      107.836    -406.386       6.354
  O      107.922    -403.878       7.193
  O      107.995    -405.830       8.777
  H      107.211    -405.329       9.074
  H      107.711    -407.183       4.479
  H      109.305    -406.527       4.911
  H      107.946    -405.426       4.530
  H      112.329    -398.347       9.948
  H      110.622    -397.981       9.878
  H      111.523    -398.229       8.402

 3  4  5  6  7  8  9  10  11  12  13  23  28  29  30  31  32 0
 6-311+G(2d,p)
 ****
 33  34 0
 6-311+G(2d,p)
 ****
 1  2  14  15  16  17  18  19  20  21  22  24  25  26  27 0
 3-21G
 ****
 35  36  37  38  39  40  41  42  43  44  45 0
 3-21G
 ****


