%nproc=1
%NoSave
%Mem=1900MB
#P OB98/GEN NMR

erre ene a

0 1
  C       65.855    -157.617    -228.020
  O       64.956    -158.708    -227.964
  H       65.788    -157.155    -229.009
  H       66.883    -157.965    -227.862
  H       65.592    -156.873    -227.263
  P       64.955    -159.559    -226.603
  C       66.889    -161.040    -227.487
  O       66.428    -160.179    -226.455
  C       67.446    -162.334    -226.895
  O       68.177    -163.078    -227.894
  C       68.392    -162.130    -225.717
  O       67.670    -161.967    -224.508
  C       69.194    -163.422    -225.752
  O       68.458    -164.507    -225.143
  C       69.356    -163.657    -227.263
  N       74.071    -164.668    -228.761
  C       73.144    -165.475    -228.134
  N       73.535    -166.735    -227.837
  N       71.937    -165.086    -227.818
  C       71.698    -163.788    -228.121
  C       72.535    -162.883    -228.738
  C       73.849    -163.348    -229.135
  O       74.684    -162.705    -229.767
  N       71.923    -161.663    -228.890
  C       70.735    -161.819    -228.339
  N       70.553    -163.090    -227.849
  O       64.051    -160.834    -226.961
  O       64.427    -158.845    -225.403
  H       69.054    -165.266    -225.021
  H       63.514    -161.065    -226.181
  H       74.974    -165.031    -229.011
  H       69.974    -161.055    -228.272
  H       69.362    -164.725    -227.510
  H       70.128    -163.333    -225.195
  H       74.510    -166.991    -227.790
  H       69.064    -161.281    -225.894
  H       72.878    -167.298    -227.311
  H       66.589    -162.953    -226.596
  H       67.675    -160.529    -228.049
  H       66.057    -161.271    -228.161
  P       68.353    -161.132    -223.322
  C       68.716    -163.278    -221.904
  O       69.306    -162.131    -222.499
  O       67.128    -160.871    -222.320
  O       68.983    -159.848    -223.750
  H       66.841    -159.940    -222.392
  H       69.469    -163.843    -221.394
  H       68.269    -163.884    -222.664
  H       67.966    -162.971    -221.205

 6  7  8  9  10  11  12  13  14  15  26  29  33  34 0
 6-311+G(2d,p)
 ****
 36  38  39  40  41 0
 6-311+G(2d,p)
 ****
 1  2  3  4  5  16  17  18  19  20  21  22  23  24  25 0
 3-21G
 ****
 27  28  30  31  32  35  37  42  43  44  45  46  47 0
 3-21G
 ****
 48  49 0
 3-21G
 ****


