%nproc=1
%NoSave
%Mem=1900MB
#P OB98/GEN NMR

erre ene a

0 1
  C       45.374     -98.398      -2.532
  O       45.032     -99.124      -1.366
  H       46.157     -98.944      -3.066
  H       45.756     -97.407      -2.272
  H       44.504     -98.303      -3.188
  P       43.957     -98.493      -0.362
  C       45.577     -97.653       1.475
  O       44.703     -97.300       0.407
  C       45.668     -96.516       2.492
  O       46.354     -95.385       1.921
  C       44.315     -95.988       2.957
  O       43.713     -96.887       3.868
  C       44.726     -94.644       3.540
  O       45.303     -94.804       4.846
  C       45.801     -94.191       2.521
  N       45.286     -93.287       1.496
  C       44.935     -92.002       1.927
  O       45.052     -91.692       3.112
  N       44.443     -91.114       1.003
  C       44.352     -91.456      -0.245
  N       43.861     -90.528      -1.112
  C       44.744     -92.788      -0.746
  C       45.186     -93.648       0.171
  O       43.245     -99.457       0.538
  O       42.937     -97.721      -1.324
  H       45.979     -95.506       4.757
  H       42.175     -98.292      -1.545
  H       44.661     -93.028      -1.797
  H       45.494     -94.649      -0.116
  H       46.628     -93.682       3.036
  H       43.882     -93.962       3.644
  H       43.662     -95.804       2.096
  H       46.265     -96.871       3.342
  H       43.627     -89.620      -0.723
  H       46.563     -97.843       1.035
  H       43.898     -90.626      -2.115
  H       45.236     -98.571       1.967
  P       42.124     -97.099       3.912
  C       42.151     -95.816       6.141
  O       41.555     -95.934       4.858
  O       41.677     -98.476       4.274
  O       41.640     -96.633       2.458
  H       41.832     -97.334       1.789
  H       41.692     -95.011       6.675
  H       43.197     -95.620       6.032
  H       42.013     -96.728       6.683

 6  7  8  9  10  11  12  13  14  15  16  26  30  31  32  33  35 0
 6-311+G(2d,p)
 ****
 37  38 0
 6-311+G(2d,p)
 ****
 1  2  3  4  5  17  18  19  20  21  22  23  24  25 0
 3-21G
 ****
 27  28  29  34  36  39  40  41  42  43  44  45  46 0
 3-21G
 ****


