%nproc=1
%NoSave
%Mem=1900MB
#P OB98/GEN NMR

erre ene a

0 1
  C      425.495    -379.105    -299.104
  O      426.579    -378.199    -299.067
  H      424.617    -378.625    -298.660
  H      425.746    -379.991    -298.514
  H      425.262    -379.395    -300.130
  P      427.841    -378.526    -300.003
  C      428.039    -376.277    -301.283
  O      428.580    -377.124    -300.281
  C      428.799    -374.949    -301.322
  O      428.447    -374.177    -300.134
  C      430.326    -375.101    -301.348
  O      430.878    -374.068    -302.181
  C      430.718    -374.807    -299.909
  O      432.068    -374.375    -299.795
  C      429.688    -373.747    -299.549
  N      431.230    -370.865    -295.734
  C      431.339    -370.683    -297.100
  N      432.008    -369.590    -297.518
  N      430.826    -371.502    -297.982
  C      430.159    -372.539    -297.427
  C      429.993    -372.840    -296.097
  C      430.573    -371.937    -295.128
  O      430.537    -372.057    -293.909
  N      429.307    -374.021    -295.939
  C      429.087    -374.444    -297.174
  N      429.587    -373.578    -298.110
  O      427.156    -378.877    -301.406
  O      428.726    -379.626    -299.523
  H      432.230    -374.124    -298.864
  H      427.038    -379.844    -301.483
  H      431.655    -370.211    -295.100
  H      428.596    -375.370    -297.439
  H      429.939    -372.755    -299.967
  H      430.585    -375.709    -299.302
  H      432.399    -368.892    -296.906
  H      430.668    -376.078    -301.697
  H      432.055    -369.413    -298.519
  H      428.447    -374.375    -302.191
  H      426.986    -376.080    -301.050
  H      428.095    -376.774    -302.252
  P      431.186    -374.419    -303.714
  C      430.781    -372.112    -304.847
  O      431.722    -373.098    -304.445
  O      429.721    -374.613    -304.340
  O      432.022    -375.640    -303.901
  H      429.746    -375.307    -305.030
  H      431.295    -371.299    -305.316
  H      430.253    -371.752    -303.989
  H      430.087    -372.542    -305.538

 6  7  8  9  10  11  12  13  14  15  26  29  33  34 0
 6-311+G(2d,p)
 ****
 36  38  39  40  41 0
 6-311+G(2d,p)
 ****
 1  2  3  4  5  16  17  18  19  20  21  22  23  24  25 0
 3-21G
 ****
 27  28  30  31  32  35  37  42  43  44  45  46  47 0
 3-21G
 ****
 48  49 0
 3-21G
 ****


