%nproc=1
%NoSave
%Mem=1900MB
#P OB98/GEN NMR

erre ene a

0 1
  C     -444.718    -494.573      62.449
  O     -445.708    -494.205      63.416
  P     -447.051    -495.079      63.425
  C     -448.884    -493.342      64.031
  O     -448.070    -494.417      64.476
  C     -450.247    -493.373      64.718
  O     -450.934    -494.633      64.530
  C     -450.174    -493.169      66.225
  O     -450.024    -491.793      66.518
  C     -451.509    -493.739      66.688
  O     -452.560    -492.760      66.568
  C     -451.730    -494.899      65.712
  N     -453.551    -499.013      68.060
  C     -454.153    -497.789      67.820
  N     -455.421    -497.652      68.246
  N     -453.557    -496.794      67.218
  C     -452.284    -497.069      66.840
  C     -451.586    -498.247      67.000
  C     -452.259    -499.343      67.679
  O     -451.782    -500.451      67.897
  N     -450.342    -498.175      66.439
  C     -450.237    -496.912      66.058
  N     -451.414    -496.219      66.220
  O     -446.599    -496.441      64.133
  O     -447.606    -495.330      62.061
  H     -452.527    -492.169      67.341
  H     -446.586    -497.168      63.477
  H     -454.052    -499.733      68.548
  H     -449.350    -496.467      65.634
  H     -452.779    -494.944      65.379
  H     -451.476    -494.037      67.739
  H     -455.951    -498.378      68.720
  H     -449.342    -493.755      66.645
  H     -455.886    -496.766      68.070
  H     -450.872    -492.590      64.264
  H     -449.021    -493.396      62.947
  H     -448.365    -492.395      64.234
  P     -449.140    -491.379      67.789
  C     -450.412    -489.537      69.099
  O     -449.446    -489.840      68.119
  O     -447.648    -491.367      67.219
  O     -449.263    -492.320      68.953
  H     -447.056    -491.815      67.842
  H     -450.161    -488.586      69.567
  H     -450.475    -490.309      69.875
  H     -451.404    -489.433      68.625
  H     -443.873    -493.923      62.539
  H     -445.131    -494.488      61.466
  H     -444.410    -495.583      62.620

 3  4  5  6  7  8  9  10  11  12  23  26  30  31 0
 6-311+G(2d,p)
 ****
 33  35  36  37  38 0
 6-311+G(2d,p)
 ****
 1  2  13  14  15  16  17  18  19  20  21  22  24  25 0
 3-21G
 ****
 27  28  29  32  34  39  40  41  42  43  44  45  46  47  48  49 0
 3-21G
 ****


