%nproc=1
%NoSave
%Mem=1900MB
#P OB98/GEN NMR

erre ene a

0 1
  C     -892.010    -958.891    -470.136
  O     -892.630    -958.303    -471.263
  H     -890.930    -958.864    -470.276
  H     -892.330    -959.936    -470.039
  H     -892.260    -958.344    -469.221
  P     -894.210    -958.031    -471.229
  C     -894.140    -955.453    -471.158
  O     -894.420    -956.646    -470.436
  C     -894.590    -954.233    -470.352
  O     -896.040    -954.181    -470.327
  C     -894.150    -954.243    -468.897
  O     -892.790    -953.903    -468.780
  C     -895.120    -953.236    -468.301
  O     -894.680    -951.894    -468.559
  C     -896.420    -953.549    -469.080
  N     -897.340    -954.407    -468.325
  C     -898.370    -953.761    -467.663
  O     -898.500    -952.533    -467.648
  N     -899.260    -954.569    -466.989
  C     -899.150    -955.915    -466.855
  O     -899.940    -956.593    -466.192
  C     -898.020    -956.540    -467.557
  C     -897.200    -955.780    -468.254
  O     -895.050    -959.164    -470.748
  O     -894.560    -957.637    -472.739
  H     -893.810    -951.803    -468.121
  H     -894.940    -958.410    -473.201
  H     -900.000    -954.104    -466.488
  H     -897.910    -957.626    -467.466
  H     -896.350    -956.217    -468.768
  H     -896.940    -952.631    -469.339
  H     -895.210    -953.331    -467.213
  H     -894.350    -955.230    -468.451
  H     -894.230    -953.329    -470.871
  H     -894.660    -955.474    -472.113
  H     -893.060    -955.409    -471.342
  P     -891.870    -954.561    -467.643
  C     -890.150    -956.251    -468.513
  O     -891.490    -956.049    -468.120
  O     -892.410    -954.468    -466.258
  O     -890.480    -953.786    -467.767
  H     -890.380    -953.156    -467.025
  H     -890.015    -957.271    -468.808
  H     -889.500    -956.028    -467.693
  H     -889.919    -955.608    -469.336

 6  7  8  9  10  11  12  13  14  15  16  26  31  32  33  34  35 0
 6-311+G(2d,p)
 ****
 36  37 0
 6-311+G(2d,p)
 ****
 1  2  3  4  5  17  18  19  20  21  22  23  24  25 0
 3-21G
 ****
 27  28  29  30  38  39  40  41  42  43  44  45 0
 3-21G
 ****


