%nproc=1
%NoSave
%Mem=1900MB
#P OB98/GEN NMR

erre ene a

0 1
  C      160.321    -174.488      28.572
  O      160.562    -173.114      28.910
  P      161.930    -172.453      28.389
  C      161.046    -170.712      26.631
  O      161.546    -170.959      27.946
  C      160.041    -169.564      26.663
  O      158.757    -170.025      27.161
  C      160.439    -168.402      27.573
  O      161.471    -167.622      26.998
  C      159.098    -167.689      27.729
  O      158.832    -166.863      26.588
  C      158.108    -168.882      27.765
  N      157.625    -169.187      29.105
  C      156.265    -168.977      29.333
  O      155.499    -168.542      28.460
  N      155.808    -169.273      30.588
  C      156.568    -169.705      31.628
  O      156.104    -169.966      32.742
  C      158.018    -169.862      31.359
  C      158.469    -169.600      30.128
  O      162.149    -173.237      27.007
  O      163.050    -172.572      29.372
  H      161.307    -173.439      26.552
  H      158.701    -167.475      25.833
  H      154.828    -169.137      30.767
  H      158.650    -170.188      32.170
  H      159.528    -169.700      29.904
  H      157.232    -168.658      27.135
  H      159.070    -167.049      28.623
  H      160.766    -168.792      28.552
  H      159.896    -169.200      25.631
  H      160.559    -171.610      26.238
  H      161.893    -170.480      25.977
  P      162.914    -167.689      27.699
  C      164.243    -168.000      25.463
  O      163.974    -167.208      26.596
  O      163.139    -169.273      27.792
  O      162.980    -166.985      29.009
  H      162.897    -169.737      26.966
  H      164.699    -167.376      24.687
  H      163.326    -168.442      25.061
  H      164.947    -168.797      25.725
  H      159.381    -174.796      28.980
  H      161.102    -175.097      28.977
  H      160.300    -174.595      27.508

 3  4  5  6  7  8  9  10  11  12  13  24  28  29  30  31  32 0
 6-311+G(2d,p)
 ****
 33  34 0
 6-311+G(2d,p)
 ****
 1  2  14  15  16  17  18  19  20  21  22  23  25  26  27 0
 3-21G
 ****
 35  36  37  38  39  40  41  42  43  44  45 0
 3-21G
 ****


