%nproc=1
%NoSave
%Mem=1900MB
#P OB98/GEN NMR

erre ene a

0 1
  C      615.568     394.883    -712.458
  O      616.027     393.565    -712.733
  P      616.343     392.607    -711.480
  C      616.664     390.039    -711.235
  O      616.123     391.110    -712.006
  C      616.478     388.712    -711.962
  O      615.101     388.277    -711.870
  C      616.787     388.750    -713.450
  O      618.184     388.638    -713.715
  C      616.065     387.512    -713.931
  O      616.843     386.335    -713.648
  C      614.792     387.527    -713.066
  N      610.220     386.652    -715.201
  C      611.150     385.813    -714.686
  N      612.354     386.120    -714.152
  C      612.570     387.446    -714.207
  C      611.728     388.414    -714.738
  C      610.496     387.977    -715.243
  N      609.535     388.832    -715.738
  N      612.294     389.671    -714.615
  C      613.449     389.463    -714.014
  N      613.661     388.137    -713.736
  O      615.086     392.851    -710.515
  O      617.640     392.881    -710.794
  H      617.726     386.472    -714.048
  H      615.321     392.631    -709.600
  H      610.899     384.757    -714.711
  H      614.168     390.235    -713.749
  H      614.485     386.523    -712.761
  H      615.881     387.512    -715.014
  H      616.351     389.637    -713.923
  H      617.111     387.961    -711.459
  H      616.149     389.995    -710.273
  H      608.618     388.455    -715.910
  H      609.656     389.823    -715.580
  H      617.730     390.237    -711.062
  P      618.656     388.838    -715.239
  C      620.721     389.956    -716.348
  O      620.023     389.660    -715.155
  O      617.596     389.897    -715.807
  O      618.680     387.573    -716.038
  H      617.514     389.804    -716.779
  H      621.428     390.758    -716.161
  H      620.024     390.286    -717.138
  H      621.267     389.067    -716.700
  H      615.400     395.402    -713.379
  H      616.305     395.405    -711.884
  H      614.654     394.834    -711.904

 3  4  5  6  7  8  9  10  11  12  22  25  29  30  31  32 0
 6-311+G(2d,p)
 ****
 33  36  37 0
 6-311+G(2d,p)
 ****
 1  2  13  14  15  16  17  18  19  20  21  23  24  26 0
 3-21G
 ****
 27  28  34  35  38  39  40  41  42  43  44  45  46  47  48 0
 3-21G
 ****


