%nproc=1
%NoSave
%Mem=1900MB
#P OB98/GEN NMR

erre ene a

0 1
  C      -63.125      80.064      24.369
  O      -63.494      81.381      24.725
  P      -64.295      81.664      26.086
  C      -63.749      84.142      26.542
  O      -63.443      82.786      26.857
  C      -62.654      85.079      27.052
  O      -61.412      84.827      26.363
  C      -62.951      86.557      26.841
  O      -63.881      87.020      27.803
  C      -61.557      87.158      26.966
  O      -61.194      87.349      28.343
  C      -60.676      86.068      26.317
  N      -60.281      86.412      24.956
  C      -59.008      86.978      24.816
  O      -58.307      87.190      25.805
  N      -58.582      87.335      23.559
  C      -59.368      87.164      22.541
  N      -58.893      87.549      21.324
  C      -60.727      86.600      22.652
  C      -61.115      86.251      23.877
  O      -64.636      80.454      26.889
  O      -65.582      82.477      25.585
  H      -60.276      87.688      28.338
  H      -66.232      81.882      25.138
  H      -61.349      86.488      21.777
  H      -62.100      85.832      24.050
  H      -59.765      85.909      26.907
  H      -61.486      88.134      26.476
  H      -63.331      86.718      25.825
  H      -62.498      84.871      28.120
  H      -57.968      87.958      21.296
  H      -64.697      84.401      27.023
  H      -59.433      87.494      20.475
  H      -63.873      84.244      25.459
  P      -65.366      87.407      27.353
  C      -66.608      85.577      28.655
  O      -66.251      86.071      27.379
  O      -65.467      88.213      26.100
  O      -65.931      88.234      28.604
  H      -66.401      89.026      28.275
  H      -67.454      84.895      28.545
  H      -66.893      86.392      29.327
  H      -65.764      85.029      29.083
  H      -62.602      80.080      23.435
  H      -64.004      79.460      24.276
  H      -62.490      79.655      25.126

 3  4  5  6  7  8  9  10  11  12  13  23  27  28  29  30  32 0
 6-311+G(2d,p)
 ****
 34  35 0
 6-311+G(2d,p)
 ****
 1  2  14  15  16  17  18  19  20  21  22  24  25  26 0
 3-21G
 ****
 31  33  36  37  38  39  40  41  42  43  44  45  46 0
 3-21G
 ****


