%nproc=1
%NoSave
%Mem=1900MB
#P OB98/GEN NMR

erre ene a

0 1
  C     -128.032    -262.330    -433.089
  O     -128.651    -261.174    -433.613
  H     -126.968    -262.307    -433.342
  H     -128.478    -263.228    -433.526
  H     -128.133    -262.356    -432.001
  P     -130.216    -260.995    -433.310
  C     -130.298    -260.361    -430.788
  O     -130.422    -261.386    -431.767
  C     -130.977    -260.798    -429.494
  O     -132.315    -261.262    -429.784
  C     -130.285    -261.961    -428.790
  O     -129.153    -261.535    -428.052
  C     -131.416    -262.489    -427.913
  O     -131.532    -261.744    -426.694
  C     -132.653    -262.255    -428.791
  N     -135.546    -266.411    -428.218
  C     -135.343    -265.336    -427.426
  N     -134.567    -264.257    -427.661
  C     -133.971    -264.356    -428.862
  C     -134.079    -265.393    -429.773
  C     -134.913    -266.462    -429.414
  N     -135.093    -267.574    -430.205
  N     -133.278    -265.156    -430.873
  C     -132.709    -263.988    -430.636
  N     -133.104    -263.471    -429.435
  O     -130.876    -262.219    -434.104
  O     -130.798    -259.683    -433.718
  H     -131.575    -260.799    -426.947
  H     -131.167    -261.918    -434.985
  H     -135.869    -265.346    -426.477
  H     -132.004    -263.493    -431.293
  H     -133.498    -261.861    -428.215
  H     -131.252    -263.532    -427.642
  H     -130.008    -262.733    -429.514
  H     -131.051    -259.931    -428.829
  H     -130.782    -259.448    -431.159
  H     -129.236    -260.158    -430.620
  H     -135.688    -268.313    -429.871
  H     -134.543    -267.669    -431.046
  P     -127.803    -262.387    -428.168
  C     -126.700    -261.064    -430.117
  O     -127.291    -262.283    -429.686
  O     -128.309    -263.902    -428.043
  O     -126.769    -262.061    -427.142
  H     -128.163    -264.236    -427.138
  H     -126.412    -261.151    -431.144
  H     -125.836    -260.856    -429.521
  H     -127.407    -260.268    -430.010

 6  7  8  9  10  11  12  13  14  15  25  28  32  33  34  35 0
 6-311+G(2d,p)
 ****
 36  37  40 0
 6-311+G(2d,p)
 ****
 1  2  3  4  5  16  17  18  19  20  21  22  23  24 0
 3-21G
 ****
 26  27  29  30  31  38  39 41  42  43  44  45  46  47  48 0
 3-21G
 ****


