%nproc=1
%NoSave
%Mem=1900MB
#P OB98/GEN NMR

erre ene a

0 1
  C      194.735      89.345      17.152
  O      193.394      89.039      17.487
  P      192.501      90.235      18.087
  C      192.087      89.723      20.622
  O      192.901      90.350      19.638
  C      192.405      88.227      20.672
  O      193.830      88.015      20.598
  C      191.937      87.530      21.945
  O      190.558      87.210      21.856
  C      192.855      86.312      21.978
  O      192.366      85.271      21.108
  C      194.176      86.893      21.462
  N      197.957      85.482      24.505
  C      197.153      84.719      23.676
  N      197.431      83.397      23.621
  N      196.174      85.207      22.965
  C      196.007      86.543      23.132
  C      196.724      87.405      23.934
  C      197.842      86.855      24.673
  O      198.645      87.502      25.343
  N      196.249      88.687      23.857
  C      195.258      88.607      22.987
  N      195.085      87.335      22.501
  O      191.029      89.612      18.108
  O      192.569      91.529      17.334
  H      191.538      84.909      21.471
  H      190.513      89.912      17.332
  H      198.714      85.050      25.017
  H      194.657      89.443      22.661
  H      194.726      86.176      20.843
  H      192.918      85.873      22.980
  H      198.155      82.945      24.157
  H      192.129      88.164      22.817
  H      196.842      82.819      23.021
  H      191.955      87.756      19.786
  H      191.032      89.859      20.353
  H      192.269      90.195      21.589
  P      189.791      86.852      23.221
  C      188.929      84.402      23.125
  O      189.980      85.280      23.471
  O      188.247      86.998      22.820
  O      190.141      87.735      24.375
  H      187.744      87.356      23.577
  H      189.355      83.434      22.852
  H      188.345      84.783      22.280
  H      188.266      84.273      23.987
  H      195.215      88.470      16.767
  H      195.253      89.681      18.026
  H      194.750      90.116      16.410

 3  4  5  6  7  8  9  10  11  12  23  26  30  31 0
 6-311+G(2d,p)
 ****
 33  35  36  37  38 0
 6-311+G(2d,p)
 ****
 1  2  13  14  15  16  17  18  19  20  21  22  24  25 0
 3-21G
 ****
 27  28  29  32  34  39  40  41  42  43  44  45  46  47  48  49 0
 3-21G
 ****


