%nproc=1
%NoSave
%Mem=1900MB
#P OB98/GEN NMR

erre ene a

0 1
  C     -167.500      12.504      46.404
  O     -168.826      12.195      46.022
  H     -166.813      12.046      45.689
  H     -167.290      12.105      47.400
  H     -167.349      13.586      46.397
  P     -169.999      12.728      46.978
  C     -171.409      11.580      48.834
  O     -170.167      11.640      48.146
  C     -171.277      10.665      50.048
  O     -170.378      11.257      51.014
  C     -172.583      10.435      50.797
  O     -173.415       9.487      50.153
  C     -172.061       9.948      52.139
  O     -171.776       8.539      52.113
  C     -170.769      10.773      52.315
  N     -170.935      11.860      53.274
  C     -170.305      11.681      54.503
  O     -169.647      10.680      54.783
  N     -170.489      12.680      55.421
  C     -171.255      13.796      55.247
  O     -171.437      14.618      56.135
  C     -171.886      13.939      53.923
  C     -171.707      12.975      53.014
  O     -171.311      12.534      46.083
  O     -169.839      14.135      47.449
  H     -171.592      13.392      45.716
  H     -171.193       8.367      52.880
  H     -170.051      12.562      56.319
  H     -172.496      14.816      53.748
  H     -172.179      13.048      52.040
  H     -169.952      10.131      52.669
  H     -172.789      10.105      52.935
  H     -173.108      11.388      50.948
  H     -170.848       9.708      49.719
  H     -172.177      11.177      48.165
  H     -171.700      12.591      49.135
  P     -174.647       8.868      50.970
  C     -174.781       7.143      52.945
  O     -174.015       8.087      52.223
  O     -175.120       7.702      49.982
  O     -175.698       9.866      51.319
  H     -174.381       7.278      49.514
  H     -174.189       6.734      53.737
  H     -175.090       6.357      52.288
  H     -175.644       7.624      53.357

 6  7  8  9  10  11  12  13  14  15  16  27  31  32  33  34  35 0
 6-311+G(2d,p)
 ****
 36  37 0
 6-311+G(2d,p)
 ****
 1  2  3  4  5  17  18  19  20  21  22  23  24  25 0
 3-21G
 ****
 26  28  29  30  38  39  40  41  42  43  44  45 0
 3-21G
 ****


