%nproc=1
%NoSave
%Mem=1900MB
#P OB98/GEN NMR

erre ene a

0 1
  C       80.013     678.770    1184.046
  O       80.201     678.618    1182.653
  H       78.988     678.479    1184.292
  H       80.166     679.804    1184.341
  H       80.706     678.117    1184.591
  P       81.611     679.081    1182.052
  C       81.030     681.593    1181.696
  O       81.318     680.333    1181.101
  C       81.134     682.687    1180.643
  O       82.519     682.954    1180.348
  C       80.490     682.342    1179.309
  O       79.079     682.479    1179.322
  C       81.164     683.336    1178.382
  O       80.491     684.615    1178.405
  C       82.581     683.458    1178.997
  N       83.572     682.742    1178.181
  C       84.104     683.430    1177.109
  O       83.803     684.604    1176.845
  N       85.001     682.758    1176.329
  C       85.358     681.454    1176.479
  O       86.123     680.869    1175.709
  C       84.743     680.739    1177.614
  C       83.888     681.405    1178.413
  O       81.990     677.901    1181.033
  O       82.685     679.309    1183.067
  H       82.701     677.356    1181.421
  H       80.888     685.137    1177.671
  H       85.400     683.257    1175.559
  H       84.994     679.688    1177.761
  H       83.406     680.893    1179.240
  H       82.889     684.510    1179.048
  H       81.169     682.990    1177.352
  H       80.779     681.318    1179.004
  H       80.676     683.617    1181.052
  H       81.752     681.798    1182.496
  H       80.024     681.558    1182.130
  P       78.192     681.129    1179.352
  C       78.804     680.907    1176.806
  O       77.832     680.799    1177.828
  O       76.831     681.710    1179.994
  O       78.833     680.042    1180.135
  H       76.709     682.661    1179.791
  H       78.364     680.644    1175.866
  H       79.618     680.245    1177.016
  H       79.165     681.913    1176.762

 6  7  8  9  10  11  12  13  14  15  16  27  31  32  33  34  35 0
 6-311+G(2d,p)
 ****
 36  37 0
 6-311+G(2d,p)
 ****
 1  2  3  4  5  17  18  19  20  21  22  23  24  25 0
 3-21G
 ****
 26  28  29  30  38  39  40  41  42  43  44  45 0
 3-21G
 ****


