%nproc=1
%NoSave
%Mem=1900MB
#P OB98/GEN NMR

erre ene a

0 1
  C     1237.500     404.068     805.403
  O     1237.242     405.451     805.255
  P     1238.354     406.544     805.557
  C     1238.818     407.087     803.018
  O     1239.302     406.660     804.278
  C     1239.343     408.512     802.729
  O     1240.763     408.567     802.969
  C     1239.074     408.927     801.287
  O     1237.865     409.674     801.200
  C     1240.315     409.751     800.951
  O     1240.193     411.085     801.457
  C     1241.418     408.976     801.719
  N     1242.009     407.757     801.102
  C     1242.844     407.905     800.003
  O     1243.163     408.977     799.522
  N     1243.290     406.720     799.455
  C     1243.022     405.467     799.923
  O     1243.231     404.443     799.288
  C     1242.367     405.405     801.234
  C     1241.873     406.531     801.735
  O     1239.294     405.809     806.626
  O     1237.869     407.869     806.038
  H     1240.180     411.024     802.418
  H     1239.071     406.110     807.526
  H     1243.794     406.812     798.571
  H     1242.254     404.433     801.704
  H     1241.346     406.510     802.681
  H     1242.251     409.646     801.994
  H     1240.440     409.831     799.861
  H     1239.053     408.044     800.621
  H     1238.860     409.209     803.417
  H     1237.719     407.091     803.032
  H     1239.135     406.396     802.226
  P     1236.758     409.245     800.121
  C     1235.209     408.449     802.013
  O     1235.912     408.066     800.828
  O     1237.271     408.937     798.763
  O     1235.764     410.507     800.117
  H     1235.985     411.088     799.361
  H     1234.543     407.615     802.278
  H     1234.634     409.345     801.842
  H     1235.945     408.598     802.818
  H     1236.621     403.512     805.150
  H     1237.772     403.862     806.417
  H     1238.302     403.783     804.754

 3  4  5  6  7  8  9  10  11  12  13  23  28  29  30  31  32 0
 6-311+G(2d,p)
 ****
 33  34 0
 6-311+G(2d,p)
 ****
 1  2  14  15  16  17  18  19  20  21  22  24  25  26  27 0
 3-21G
 ****
 35  36  37  38  39  40  41  42  43  44  45 0
 3-21G
 ****


