%nproc=1
%NoSave
%Mem=1900MB
#P OB98/GEN NMR

erre ene a

0 1
  C      247.160     283.815      83.343
  O      247.541     284.267      84.626
  H      248.061     283.632      82.752
  H      246.557     284.576      82.839
  H      246.593     282.883      83.423
  P      246.348     284.652      85.629
  C      244.366     283.319      86.640
  O      245.308     283.429      85.581
  C      243.029     282.801      86.115
  O      242.454     283.734      85.176
  C      243.111     281.458      85.403
  O      243.082     280.386      86.331
  C      241.868     281.508      84.526
  O      240.685     281.177      85.287
  C      241.845     282.983      84.094
  N      241.529     282.683      79.061
  C      240.669     282.222      80.038
  N      239.569     281.560      79.614
  N      240.868     282.386      81.319
  C      242.032     283.015      81.601
  C      242.972     283.513      80.727
  C      242.709     283.375      79.310
  O      243.391     283.831      78.396
  N      244.014     284.102      81.396
  C      243.721     283.928      82.673
  N      242.530     283.268      82.848
  O      245.574     285.821      84.854
  O      246.768     285.094      86.989
  H      239.900     281.315      84.728
  H      245.276     286.484      85.506
  H      241.308     282.555      78.091
  H      244.328     284.268      83.501
  H      240.820     283.354      83.976
  H      241.920     280.786      83.710
  H      239.510     281.159      78.690
  H      244.003     281.402      84.762
  H      238.979     281.162      80.334
  H      242.341     282.742      86.970
  H      244.222     284.309      87.088
  H      244.753     282.634      87.399
  P      243.704     278.977      85.886
  C      246.097     278.150      85.321
  O      245.193     279.244      85.350
  O      242.881     278.631      84.556
  O      243.569     277.890      86.896
  H      242.228     277.929      84.745
  H      247.043     278.479      84.943
  H      245.707     277.382      84.687
  H      246.223     277.765      86.311

 6  7  8  9  10  11  12  13  14  15  26  29  33  34 0
 6-311+G(2d,p)
 ****
 36  38  39  40  41 0
 6-311+G(2d,p)
 ****
 1  2  3  4  5  16  17  18  19  20  21  22  23  24  25 0
 3-21G
 ****
 27  28  30  31  32  35  37  42  43  44  45  46  47 0
 3-21G
 ****
 48  49 0
 3-21G
 ****


