%nproc=1
%NoSave
%Mem=1900MB
#P OB98/GEN NMR

erre ene a

0 1
  C      222.472      -5.156     -67.381
  O      223.818      -5.542     -67.594
  P      224.329      -6.988     -67.132
  C      224.627      -8.238     -64.905
  O      224.523      -6.968     -65.539
  C      225.248      -8.093     -63.516
  O      226.656      -7.769     -63.614
  C      224.646      -6.976     -62.680
  O      223.351      -7.304     -62.204
  C      225.708      -6.812     -61.599
  O      225.557      -7.812     -60.580
  C      227.004      -7.053     -62.401
  N      227.714      -5.817     -62.699
  C      228.686      -5.427     -61.773
  O      228.853      -6.070     -60.734
  N      229.442      -4.310     -62.047
  C      229.165      -3.584     -63.085
  N      229.985      -2.525     -63.338
  C      228.039      -3.875     -63.995
  C      227.377      -5.008     -63.760
  O      225.492      -7.527     -67.898
  O      223.045      -7.929     -67.316
  H      223.305      -8.724     -67.822
  H      226.179      -7.572     -59.862
  H      227.807      -3.198     -64.807
  H      226.550      -5.312     -64.393
  H      227.677      -7.721     -61.846
  H      225.656      -5.835     -61.107
  H      224.591      -6.056     -63.277
  H      225.152      -9.057     -62.999
  H      230.758      -2.368     -62.700
  H      225.256      -8.887     -65.522
  H      230.064      -2.105     -64.260
  H      223.630      -8.688     -64.835
  P      222.203      -6.204     -62.410
  C      222.106      -3.629     -62.144
  O      222.722      -4.840     -61.750
  O      221.044      -6.694     -61.411
  O      221.697      -6.084     -63.810
  H      220.173      -6.515     -61.808
  H      222.310      -2.869     -61.387
  H      221.022      -3.746     -62.248
  H      222.530      -3.298     -63.098
  H      222.322      -4.164     -67.754
  H      222.256      -5.180     -66.333
  H      221.821      -5.832     -67.895

 3  4  5  6  7  8  9  10  11  12  13  24  27  28  29  30  32 0
 6-311+G(2d,p)
 ****
 34  35 0
 6-311+G(2d,p)
 ****
 1  2  14  15  16  17  18  19  20  21  22  23  25  26 0
 3-21G
 ****
 31  33  36  37  38  39  40  41  42  43  44  45  46 0
 3-21G
 ****


