%nproc=1
%NoSave
%Mem=1900MB
#P OB98/GEN NMR

erre ene a

0 1
  C      -82.221     346.791     254.572
  O      -81.234     347.153     253.627
  H      -82.741     347.684     254.935
  H      -82.950     346.131     254.090
  H      -81.762     346.255     255.412
  P      -80.076     348.140     254.147
  C      -78.645     346.563     255.627
  O      -78.767     347.235     254.378
  C      -78.163     345.131     255.409
  O      -79.309     344.324     255.008
  C      -77.075     344.991     254.329
  O      -75.965     344.226     254.826
  C      -77.749     344.201     253.217
  O      -76.853     343.321     252.542
  C      -78.841     343.445     253.966
  N      -80.526     339.833     250.778
  C      -79.618     339.788     251.781
  N      -79.289     340.762     252.657
  C      -80.028     341.865     252.441
  C      -81.002     342.050     251.472
  C      -81.230     340.976     250.601
  N      -82.116     341.037     249.542
  N      -81.539     343.328     251.554
  C      -80.870     343.913     252.527
  N      -79.934     343.078     253.085
  O      -80.551     348.506     255.635
  O      -79.885     349.362     253.314
  H      -76.718     342.546     253.118
  H      -80.696     349.470     255.689
  H      -79.084     338.846     251.893
  H      -80.981     344.946     252.838
  H      -78.463     342.532     254.443
  H      -78.169     344.902     252.489
  H      -76.707     345.958     253.969
  H      -77.806     344.732     256.366
  H      -79.621     346.540     256.125
  H      -82.131     340.269     248.899
  H      -82.559     341.926     249.336
  H      -77.940     347.112     256.261
  P      -74.691     345.073     255.347
  C      -75.175     346.616     257.383
  O      -74.859     345.301     256.925
  O      -74.936     346.519     254.707
  O      -73.382     344.499     254.917
  H      -74.165     346.782     254.164
  H      -75.255     346.612     258.450
  H      -76.105     346.928     256.957
  H      -74.401     347.293     257.085

 6  7  8  9  10  11  12  13  14  15  25  28  32  33  34  35 0
 6-311+G(2d,p)
 ****
 36  39  40 0
 6-311+G(2d,p)
 ****
 1  2  3  4  5  16  17  18  19  20  21  22  23  24 0
 3-21G
 ****
 26  27  29  30  31  37  38  41  42  43  44  45  46  47  48 0
 3-21G
 ****


