%nproc=1
%NoSave
%Mem=1900MB
#P OB98/GEN NMR

erre ene a

0 1
  C      337.562     211.917    -188.321
  O      338.140     212.957    -187.547
  P      339.722     212.896    -187.273
  C      340.426     214.330    -189.330
  O      340.446     213.062    -188.695
  C      341.850     214.831    -189.576
  O      341.816     215.829    -190.632
  C      342.524     215.482    -188.359
  O      343.925     215.204    -188.457
  C      342.280     216.965    -188.589
  O      343.195     217.789    -187.878
  C      342.399     217.039    -190.107
  N      342.977     221.660    -192.085
  C      343.919     220.805    -191.543
  N      345.204     221.223    -191.590
  N      343.632     219.647    -191.002
  C      342.308     219.361    -191.044
  C      341.275     220.139    -191.515
  C      341.615     221.396    -192.141
  O      340.823     222.148    -192.712
  N      340.061     219.546    -191.301
  C      340.365     218.377    -190.775
  N      341.717     218.198    -190.641
  O      339.960     211.357    -186.904
  O      340.232     213.825    -186.216
  H      342.907     218.721    -187.991
  H      339.932     211.218    -185.937
  H      343.263     222.533    -192.502
  H      339.652     217.618    -190.478
  H      343.446     217.086    -190.446
  H      341.264     217.229    -188.262
  H      345.503     222.088    -192.015
  H      342.126     215.133    -187.403
  H      345.918     220.601    -191.228
  H      342.454     213.991    -189.943
  H      339.912     215.045    -188.680
  H      339.869     214.261    -190.271
  P      344.669     214.654    -187.150
  C      344.454     212.102    -187.562
  O      344.045     213.224    -186.799
  O      344.097     215.601    -185.986
  O      346.162     214.723    -187.202
  H      344.778     215.725    -185.303
  H      344.272     211.196    -186.980
  H      345.515     212.158    -187.811
  H      343.869     212.057    -188.485
  H      336.510     212.088    -188.420
  H      337.726     210.978    -187.836
  H      338.014     211.901    -189.291

 3  4  5  6  7  8  9  10  11  12  23  26  30  31 0
 6-311+G(2d,p)
 ****
 33  35  36  37  38 0
 6-311+G(2d,p)
 ****
 1  2  13  14  15  16  17  18  19  20  21  22  24  25 0
 3-21G
 ****
 27  28  29  32  34  39  40  41  42  43  44  45  46  47  48  49 0
 3-21G
 ****


