%nproc=1
%NoSave
%Mem=1900MB
#P OB98/GEN NMR

erre ene a

0 1
  C      483.326     338.092     -98.038
  O      483.116     337.080     -99.019
  P      484.180     336.664    -100.139
  C      485.566     334.837     -98.866
  O      484.617     335.147     -99.874
  C      486.921     334.373     -99.431
  O      487.948     334.511     -98.409
  C      486.873     332.889     -99.795
  O      486.340     332.482    -101.044
  C      488.277     332.378     -99.519
  O      489.104     332.394    -100.684
  C      488.813     333.364     -98.476
  N      491.918     331.214     -95.020
  C      492.195     331.626     -96.304
  N      493.449     331.394     -96.753
  N      491.321     332.195     -97.090
  C      490.086     332.288     -96.548
  C      489.681     331.899     -95.294
  C      490.674     331.318     -94.407
  O      490.478     330.947     -93.257
  N      488.341     332.124     -95.103
  C      487.930     332.631     -96.250
  N      488.957     332.757     -97.158
  O      485.273     337.650    -100.388
  O      483.290     336.574    -101.481
  H      488.621     331.948    -101.403
  H      483.874     336.844    -102.221
  H      492.635     330.800     -94.449
  H      486.916     332.931     -96.470
  H      489.805     333.736     -98.754
  H      488.248     331.334     -99.173
  H      494.134     330.855     -96.242
  H      486.234     332.400     -99.047
  H      493.599     331.495     -97.763
  H      487.235     335.013    -100.260
  H      485.125     334.056     -98.238
  H      485.716     335.702     -98.216
  P      485.223     331.357    -101.277
  C      483.193     332.903    -101.087
  O      483.947     332.058    -101.938
  O      484.710     331.010     -99.799
  O      485.706     330.125    -101.976
  H      484.222     330.163     -99.798
  H      482.207     333.069    -101.535
  H      483.695     333.866    -100.978
  H      483.060     332.449    -100.096
  H      482.460     338.169     -97.414
  H      483.500     339.029     -98.524
  H      484.176     337.838     -97.439

 3  4  5  6  7  8  9  10  11  12  23  26  30  31 0
 6-311+G(2d,p)
 ****
 33  35  36  37  38 0
 6-311+G(2d,p)
 ****
 1  2  13  14  15  16  17  18  19  20  21  22  24  25 0
 3-21G
 ****
 27  28  29  32  34  39  40  41  42  43  44  45  46  47  48  49 0
 3-21G
 ****


