%nproc=1
%NoSave
%Mem=1900MB
#P OB98/GEN NMR

erre ene a

0 1
  C      545.303     158.027     209.192
  O      545.140     157.976     207.789
  H      544.373     158.386     209.639
  H      546.113     158.711     209.469
  H      545.514     157.025     209.581
  P      546.449     157.747     206.884
  C      546.962     160.271     207.054
  O      547.449     158.948     207.267
  C      547.928     161.085     206.194
  O      547.289     162.281     205.697
  C      549.157     161.588     206.942
  O      550.043     160.574     207.366
  C      549.658     162.681     206.016
  O      550.456     162.174     204.945
  C      548.330     163.254     205.466
  N      547.996     164.542     206.060
  C      548.642     165.655     205.512
  O      549.469     165.580     204.605
  N      548.331     166.861     206.072
  C      547.491     167.063     207.133
  O      547.270     168.172     207.600
  C      546.865     165.852     207.692
  C      547.141     164.671     207.135
  O      546.207     157.609     205.407
  O      547.149     156.468     207.544
  H      550.587     162.909     204.320
  H      547.828     156.080     206.935
  H      548.780     167.677     205.683
  H      546.204     165.970     208.533
  H      546.688     163.761     207.529
  H      548.396     163.389     204.380
  H      550.267     163.419     206.545
  H      548.816     162.084     207.859
  H      548.212     160.476     205.330
  H      546.852     160.746     208.031
  H      545.979     160.219     206.579
  P      550.535     160.398     208.875
  C      553.059     160.878     208.363
  O      551.884     161.251     209.076
  O      550.490     159.013     209.435
  O      549.454     161.289     209.674
  H      549.309     160.853     210.538
  H      553.856     161.547     208.613
  H      552.869     160.928     207.311
  H      553.335     159.879     208.629

 6  7  8  9  10  11  12  13  14  15  16  26  31  32  33  34  35 0
 6-311+G(2d,p)
 ****
 36  37 0
 6-311+G(2d,p)
 ****
 1  2  3  4  5  17  18  19  20  21  22  23  24  25 0
 3-21G
 ****
 27  28  29  30  38  39  40  41  42  43  44  45 0
 3-21G
 ****


