%nproc=1
%NoSave
%Mem=1900MB
#P OB98/GEN NMR

erre ene a

0 1
  C     -631.415     320.931       9.470
  O     -631.956     320.218      10.607
  P     -631.915     320.839      12.083
  C     -629.538     319.960      12.535
  O     -630.897     319.977      12.976
  C     -628.620     319.235      13.541
  O     -628.660     319.859      14.822
  C     -628.995     317.766      13.755
  O     -628.519     316.962      12.690
  C     -628.316     317.515      15.113
  O     -626.915     317.232      14.937
  C     -628.521     318.841      15.834
  N     -630.660     316.649      19.932
  C     -629.475     316.442      19.304
  N     -628.975     317.063      18.230
  C     -629.827     318.006      17.786
  C     -631.071     318.329      18.319
  C     -631.479     317.603      19.445
  N     -632.693     317.805      20.075
  N     -631.665     319.353      17.582
  C     -630.797     319.642      16.640
  N     -629.669     318.850      16.719
  O     -633.275     321.023      12.702
  O     -631.178     322.249      11.924
  H     -626.845     316.443      14.359
  H     -631.482     322.869      12.614
  H     -628.835     315.664      19.745
  H     -630.924     320.397      15.885
  H     -627.648     319.122      16.423
  H     -628.752     316.650      15.638
  H     -630.077     317.675      13.869
  H     -627.603     319.322      13.159
  H     -629.191     321.001      12.429
  H     -632.925     317.219      20.854
  H     -633.333     318.485      19.690
  H     -629.484     319.469      11.556
  P     -629.390     316.816      11.355
  C     -630.020     314.416      11.969
  O     -629.445     315.249      10.996
  O     -628.990     317.726      10.238
  O     -630.905     317.137      11.846
  H     -631.394     317.520      11.108
  H     -629.275     314.198      12.748
  H     -630.322     313.477      11.500
  H     -630.907     314.878      12.431
  H     -631.544     320.342       8.586
  H     -630.373     321.115       9.627
  H     -631.929     321.863       9.356

 3  4  5  6  7  8  9  10  11  12  22  25  29  30  31  32 0
 6-311+G(2d,p)
 ****
 33  36  37 0
 6-311+G(2d,p)
 ****
 1  2  13  14  15  16  17  18  19  20  21  23  24  26 0
 3-21G
 ****
 27  28  34  35  38  39  40  41  42  43  44  45  46  47  48 0
 3-21G
 ****


