%nproc=1
%NoSave
%Mem=1900MB
#P OB98/GEN NMR

erre ene a

0 1
  C       23.521    -177.662     286.096
  O       24.707    -176.944     285.828
  H       22.694    -176.951     286.174
  H       23.609    -178.198     287.044
  H       23.300    -178.366     285.290
  P       26.045    -177.762     285.501
  C       27.027    -176.863     287.710
  O       26.795    -178.008     286.897
  C       27.942    -177.229     288.873
  O       27.171    -177.818     289.945
  C       29.002    -178.265     288.520
  O       30.052    -177.699     287.760
  C       29.398    -178.752     289.903
  O       30.340    -177.865     290.516
  C       28.048    -178.719     290.656
  N       27.452    -180.051     290.775
  C       27.777    -180.768     291.920
  O       28.510    -180.337     292.808
  N       27.275    -182.041     291.987
  C       26.620    -182.690     290.980
  O       26.408    -183.899     290.986
  C       26.251    -181.864     289.822
  C       26.689    -180.604     289.766
  O       26.898    -177.199     284.414
  O       25.508    -179.224     285.124
  H       25.521    -179.330     284.153
  H       30.637    -178.315     291.334
  H       27.543    -182.584     292.796
  H       25.667    -182.323     289.034
  H       26.459    -179.983     288.904
  H       28.181    -178.305     291.662
  H       29.850    -179.745     289.864
  H       28.541    -179.093     287.969
  H       28.407    -176.310     289.252
  H       26.066    -176.509     288.099
  H       27.473    -176.074     287.095
  P       31.234    -178.621     287.201
  C       33.072    -177.471     288.579
  O       32.388    -178.691     288.312
  O       31.710    -178.286     285.827
  O       30.621    -180.102     287.241
  H       30.766    -180.525     286.371
  H       33.815    -177.636     289.331
  H       32.373    -176.738     288.923
  H       33.543    -177.123     287.683

 6  7  8  9  10  11  12  13  14  15  16  27  31  32  33  34  35 0
 6-311+G(2d,p)
 ****
 36  37 0
 6-311+G(2d,p)
 ****
 1  2  3  4  5  17  18  19  20  21  22  23  24  25 0
 3-21G
 ****
 26  28  29  30  38  39  40  41  42  43  44  45 0
 3-21G
 ****


