%nproc=1
%NoSave
%Mem=1900MB
#P OB98/GEN NMR

erre ene a

0 1
  C       89.102     402.990     166.609
  O       88.389     404.159     166.240
  P       87.869     404.362     164.743
  C       88.766     406.829     164.678
  O       88.695     405.554     164.078
  C       90.143     407.442     164.377
  O       91.189     406.525     164.760
  C       90.305     407.751     162.894
  O       89.964     409.101     162.621
  C       91.768     407.438     162.648
  O       92.597     408.541     163.057
  C       91.989     406.226     163.584
  N       91.595     404.887     163.097
  C       92.160     404.390     161.928
  O       93.013     404.986     161.270
  N       91.693     403.166     161.513
  C       90.771     402.403     162.171
  O       90.188     401.444     161.676
  C       90.422     402.857     163.521
  C       90.826     404.066     163.906
  O       86.412     404.994     164.950
  O       87.830     403.126     163.903
  H       93.490     408.381     162.690
  H       85.726     404.307     164.866
  H       91.997     402.862     160.594
  H       89.807     402.215     164.132
  H       90.542     404.441     164.889
  H       93.035     406.158     163.903
  H       91.969     407.284     161.587
  H       89.695     407.066     162.291
  H       90.260     408.357     164.973
  H       88.615     406.743     165.760
  H       87.974     407.472     164.289
  P       88.672     409.428     161.735
  C       90.402     410.264     160.035
  O       89.214     409.523     160.226
  O       87.853     410.586     162.194
  O       87.845     408.055     161.771
  H       87.143     408.112     162.451
  H       90.756     410.106     159.012
  H       91.178     409.939     160.733
  H       90.200     411.332     160.174
  H       89.361     403.043     167.646
  H       89.993     402.916     166.022
  H       88.489     402.130     166.438

 3  4  5  6  7  8  9  10  11  12  13  23  28  29  30  31  32 0
 6-311+G(2d,p)
 ****
 33  34 0
 6-311+G(2d,p)
 ****
 1  2  14  15  16  17  18  19  20  21  22  24  25  26  27 0
 3-21G
 ****
 35  36  37  38  39  40  41  42  43  44  45 0
 3-21G
 ****


