%nproc=1
%NoSave
%Mem=1900MB
#P OB98/GEN NMR

erre ene a

0 1
  C      137.240      30.434     373.879
  O      137.005      30.891     372.565
  H      137.783      29.488     373.826
  H      136.296      30.266     374.400
  H      137.848      31.156     374.431
  P      136.164      32.240     372.356
  C      137.887      33.160     370.669
  O      136.531      32.794     370.894
  C      137.972      34.208     369.552
  O      137.566      33.570     368.316
  C      137.051      35.409     369.803
  O      137.731      36.660     369.721
  C      135.891      35.163     368.844
  O      135.206      36.331     368.442
  C      136.542      34.375     367.704
  N      135.608      33.537     366.954
  C      135.052      34.077     365.798
  O      135.296      35.195     365.353
  N      134.174      33.263     365.130
  C      133.798      32.005     365.501
  O      133.008      31.324     364.859
  C      134.397      31.503     366.747
  C      135.259      32.279     367.406
  O      136.278      33.246     373.450
  O      134.655      31.732     372.179
  H      135.846      36.883     367.944
  H      134.152      31.918     372.995
  H      133.778      33.634     364.282
  H      134.111      30.514     367.078
  H      135.722      31.939     368.327
  H      137.021      35.051     366.993
  H      135.159      34.519     369.347
  H      136.668      35.399     370.830
  H      139.018      34.516     369.438
  H      138.437      32.258     370.385
  H      138.316      33.565     371.592
  P      137.852      37.717     370.908
  C      140.410      38.178     370.524
  O      139.087      38.687     370.605
  O      137.755      37.162     372.290
  O      136.579      38.684     370.686
  H      136.305      38.983     371.578
  H      141.088      38.979     370.315
  H      140.465      37.451     369.741
  H      140.674      37.721     371.455

 6  7  8  9  10  11  12  13  14  15  16  26  31  32  33  34  35 0
 6-311+G(2d,p)
 ****
 36  37 0
 6-311+G(2d,p)
 ****
 1  2  3  4  5  17  18  19  20  21  22  23  24  25 0
 3-21G
 ****
 27  28  29  30  38  39  40  41  42  43  44  45 0
 3-21G
 ****


