%nproc=1
%NoSave
%Mem=1900MB
#P OB98/GEN NMR

erre ene a

0 1
  C     -899.320    -869.464      86.416
  O     -899.380    -868.449      85.434
  H     -900.000    -870.270      86.128
  H     -899.640    -869.062      87.379
  H     -898.320    -869.875      86.498
  P     -898.350    -867.229      85.508
  C     -897.150    -867.958      83.337
  O     -897.020    -867.686      84.717
  C     -895.820    -868.435      82.732
  O     -895.520    -869.763      83.288
  C     -895.820    -868.562      81.203
  O     -894.490    -868.315      80.757
  C     -896.200    -870.039      81.033
  O     -896.020    -870.506      79.728
  C     -895.330    -870.644      82.146
  N     -895.630    -872.016      82.501
  C     -895.080    -873.034      81.727
  O     -894.320    -872.852      80.762
  N     -895.390    -874.329      82.104
  C     -896.190    -874.681      83.158
  O     -896.420    -875.840      83.456
  C     -896.770    -873.573      83.940
  C     -896.460    -872.297      83.583
  O     -898.110    -866.665      86.870
  O     -898.980    -866.133      84.522
  H     -899.430    -865.443      85.047
  H     -896.420    -869.861      79.102
  H     -894.980    -875.074      81.555
  H     -897.400    -873.798      84.769
  H     -896.850    -871.450      84.142
  H     -894.250    -870.568      81.862
  H     -897.270    -870.179      81.251
  H     -896.520    -867.878      80.707
  H     -895.020    -867.760      83.070
  H     -897.470    -867.020      82.828
  H     -897.940    -868.732      83.179
  P     -894.100    -867.169      79.707
  C     -892.850    -865.692      81.424
  O     -893.930    -865.774      80.521
  O     -895.040    -867.075      78.557
  O     -892.600    -867.506      79.222
  H     -892.470    -867.135      78.327
  H     -892.849    -864.730      81.892
  H     -891.931    -865.832      80.894
  H     -892.951    -866.452      82.170

 6  7  8  9  10  11  12  13  14  15  16  27  31  32  33  34  35 0
 6-311+G(2d,p)
 ****
 36  37 0
 6-311+G(2d,p)
 ****
 1  2  3  4  5  17  18  19  20  21  22  23  24  25 0
 3-21G
 ****
 26  28  29  30  38  39  40  41  42  43  44  45 0
 3-21G
 ****


