%nproc=1
%NoSave
%Mem=1900MB
#P OB98/GEN NMR

erre ene a

0 1
  C      -68.591    -141.776    -657.169
  O      -68.596    -142.580    -658.331
  H      -67.752    -141.078    -657.203
  H      -69.523    -141.209    -657.130
  H      -68.520    -142.399    -656.271
  P      -67.390    -143.629    -658.493
  C      -65.011    -143.509    -659.538
  O      -66.169    -142.795    -659.117
  C      -64.099    -142.606    -660.365
  O      -64.804    -142.216    -661.576
  C      -63.681    -141.327    -659.635
  O      -62.315    -141.036    -659.964
  C      -64.589    -140.268    -660.229
  O      -64.029    -138.958    -660.140
  C      -64.761    -140.779    -661.657
  N      -66.886    -136.721    -663.920
  C      -65.627    -136.969    -663.501
  N      -65.138    -138.080    -662.917
  C      -66.099    -139.019    -662.811
  C      -67.425    -138.913    -663.186
  C      -67.820    -137.691    -663.757
  N      -69.112    -137.418    -664.147
  N      -68.106    -140.080    -662.883
  C      -67.203    -140.866    -662.335
  N      -65.979    -140.271    -662.271
  O      -67.894    -144.537    -659.716
  O      -67.073    -144.444    -657.283
  H      -63.170    -138.963    -660.603
  H      -68.537    -145.191    -659.391
  H      -64.915    -136.164    -663.663
  H      -67.391    -141.869    -661.969
  H      -63.927    -140.494    -662.315
  H      -65.552    -140.265    -659.698
  H      -63.784    -141.403    -658.552
  H      -63.228    -143.189    -660.684
  H      -65.327    -144.375    -660.140
  H      -69.320    -136.497    -664.494
  H      -69.833    -138.107    -663.976
  H      -64.472    -143.872    -658.652
  P      -61.242    -141.172    -658.774
  C      -60.159    -139.638    -656.997
  O      -61.014    -139.719    -658.126
  O      -59.873    -141.469    -659.551
  O      -61.567    -142.260    -657.806
  H      -59.424    -142.243    -659.156
  H      -60.096    -138.621    -656.669
  H      -59.183    -139.988    -657.263
  H      -60.552    -140.244    -656.207

 6  7  8  9  10  11  12  13  14  15  25  28  32  33  34  35 0
 6-311+G(2d,p)
 ****
 36  39  40 0
 6-311+G(2d,p)
 ****
 1  2  3  4  5  16  17  18  19  20  21  22  23  24 0
 3-21G
 ****
 26  27  29  30  31  37  38  41  42  43  44  45  46  47 0
 3-21G
 ****
 48 0
 3-21G
 ****


