%nproc=1
%NoSave
%Mem=1900MB
#P OB98/GEN NMR

erre ene a

0 1
  C      181.158      -2.501     -69.607
  O      180.055      -2.742     -68.745
  P      180.354      -3.073     -67.203
  C      181.117      -1.646     -65.176
  O      181.113      -1.796     -66.590
  C      182.437      -1.050     -64.689
  O      183.445      -2.098     -64.651
  C      182.991       0.077     -65.567
  O      183.674       0.995     -64.701
  C      184.009      -0.635     -66.437
  O      184.969       0.263     -66.988
  C      184.567      -1.643     -65.437
  N      187.865      -5.507     -64.854
  C      187.416      -4.571     -63.990
  N      186.536      -3.575     -64.219
  C      186.113      -3.599     -65.496
  C      186.510      -4.468     -66.498
  C      187.428      -5.468     -66.137
  N      187.879      -6.429     -67.011
  N      185.876      -4.160     -67.683
  C      185.114      -3.124     -67.405
  N      185.206      -2.764     -66.090
  O      181.505      -4.181     -67.302
  O      179.187      -3.568     -66.421
  H      185.421       0.718     -66.252
  H      181.160      -5.046     -67.002
  H      187.811      -4.636     -62.979
  H      184.484      -2.600     -68.113
  H      185.296      -1.187     -64.754
  H      183.499      -1.135     -67.267
  H      182.229       0.603     -66.151
  H      182.298      -0.701     -63.658
  H      180.988      -2.631     -64.720
  H      188.428      -7.189     -66.644
  H      187.419      -6.524     -67.911
  H      180.280      -1.010     -64.874
  P      183.956       2.464     -65.277
  C      182.410       4.428     -65.970
  O      182.554       3.031     -65.799
  O      184.780       2.184     -66.622
  O      184.713       3.350     -64.343
  H      185.362       2.941     -66.819
  H      181.739       4.613     -66.812
  H      183.370       4.916     -66.169
  H      181.972       4.856     -65.065
  H      180.801      -2.296     -70.595
  H      181.790      -3.364     -69.628
  H      181.715      -1.661     -69.248

 3  4  5  6  7  8  9  10  11  12  22  25  29  30  31  32 0
 6-311+G(2d,p)
 ****
 33  36  37 0
 6-311+G(2d,p)
 ****
 1  2  13  14  15  16  17  18  19  20  21  23  24  26 0
 3-21G
 ****
 27  28  34  35  38  39  40  41  42  43  44  45  46  47  48 0
 3-21G
 ****


