%nproc=1
%NoSave
%Mem=1900MB
#P OB98/GEN NMR

erre ene a

0 1
  C       98.355      53.566    -113.838
  O       98.774      54.750    -113.191
  H       97.262      53.565    -113.901
  H       98.670      52.693    -113.259
  H       98.764      53.505    -114.851
  P      100.332      55.134    -113.204
  C      100.364      53.450    -111.249
  O      101.087      54.015    -112.333
  C      101.296      53.154    -110.069
  O      102.199      52.068    -110.453
  C      102.177      54.353    -109.648
  O      102.389      54.246    -108.234
  C      103.455      54.060    -110.416
  O      104.530      54.834    -109.957
  C      103.540      52.543    -110.215
  N      104.502      51.893    -111.099
  C      105.642      51.346    -110.513
  O      105.868      51.365    -109.307
  N      106.539      50.777    -111.380
  C      106.415      50.705    -112.738
  O      107.240      50.161    -113.464
  C      105.201      51.325    -113.300
  C      104.313      51.882    -112.470
  O      100.656      56.544    -112.841
  O      100.791      54.789    -114.702
  H      100.794      55.605    -115.238
  H      104.474      55.745    -110.316
  H      107.372      50.375    -110.973
  H      105.080      51.306    -114.375
  H      103.409      52.349    -112.846
  H      103.787      52.302    -109.176
  H      103.321      54.302    -111.477
  H      101.720      55.319    -109.881
  H      100.697      52.786    -109.227
  H       99.896      52.522    -111.596
  H       99.577      54.149    -110.936
  P      101.244      54.548    -107.145
  C      101.269      57.122    -107.297
  O      100.520      55.935    -107.506
  O      101.732      54.487    -105.732
  O      100.111      53.443    -107.398
  H       99.718      53.182    -106.542
  H      100.678      57.970    -107.574
  H      102.156      57.094    -107.895
  H      101.538      57.197    -106.264

 6  7  8  9  10  11  12  13  14  15  16  27  31  32  33  34  35 0
 6-311+G(2d,p)
 ****
 36  37 0
 6-311+G(2d,p)
 ****
 1  2  3  4  5  17  18  19  20  21  22  23  24  25 0
 3-21G
 ****
 26  28  29  30  38  39  40  41  42  43  44  45 0
 3-21G
 ****


