%nproc=1
%NoSave
%Mem=1900MB
#P OB98/GEN NMR

erre ene a

0 1
  C      172.904    -484.486    -425.834
  O      171.967    -483.874    -424.971
  H      173.198    -485.452    -425.407
  H      173.804    -483.872    -425.931
  H      172.460    -484.655    -426.815
  P      171.502    -482.377    -425.287
  C      170.134    -482.878    -427.425
  O      170.099    -482.510    -426.050
  C      168.853    -483.603    -427.806
  O      168.806    -484.913    -427.194
  C      167.585    -482.885    -427.343
  O      167.314    -481.775    -428.164
  C      166.572    -484.011    -427.404
  O      166.114    -484.233    -428.741
  C      167.426    -485.215    -426.904
  N      167.217    -485.490    -425.480
  C      166.462    -486.610    -425.174
  O      166.004    -487.329    -426.065
  N      166.227    -486.901    -423.848
  C      166.719    -486.150    -422.920
  N      166.437    -486.475    -421.627
  C      167.537    -484.943    -423.200
  C      167.743    -484.677    -424.495
  O      172.505    -481.494    -425.974
  O      171.080    -481.798    -423.849
  H      165.651    -485.091    -428.717
  H      171.851    -481.390    -423.413
  H      167.928    -484.340    -422.399
  H      168.341    -483.816    -424.798
  H      167.171    -486.121    -427.471
  H      165.710    -483.797    -426.778
  H      167.697    -482.574    -426.295
  H      168.837    -483.743    -428.901
  H      165.870    -487.293    -421.482
  H      171.002    -483.539    -427.562
  H      166.847    -486.007    -420.838
  H      170.269    -481.995    -428.065
  P      166.042    -480.829    -427.869
  C      167.608    -478.985    -426.948
  O      166.605    -479.330    -427.918
  O      165.256    -481.195    -426.663
  O      165.197    -480.925    -429.248
  H      164.733    -481.815    -429.311
  H      167.900    -477.965    -427.084
  H      168.460    -479.620    -427.075
  H      167.211    -479.114    -425.963

 6  7  8  9  10  11  12  13  14  15  16  26  30  31  32  33  35 0
 6-311+G(2d,p)
 ****
 37  38 0
 6-311+G(2d,p)
 ****
 1  2  3  4  5  17  18  19  20  21  22  23  24  25 0
 3-21G
 ****
 27  28  29  34  36  39  40  41  42  43  44  45  46 0
 3-21G
 ****


