%nproc=1
%NoSave
%Mem=1900MB
#P OB98/GEN NMR

erre ene a

0 1
  C     -396.855     938.181    -128.507
  O     -395.680     938.971    -128.520
  P     -395.136     939.511    -127.105
  C     -392.694     938.952    -127.795
  O     -393.611     939.945    -127.369
  C     -391.398     939.602    -128.287
  O     -391.598     940.215    -129.573
  C     -390.851     940.700    -127.392
  O     -390.122     940.185    -126.293
  C     -389.926     941.427    -128.347
  O     -388.697     940.705    -128.482
  C     -390.720     941.367    -129.682
  N     -390.532     946.460    -129.867
  C     -389.613     945.553    -129.530
  N     -389.748     944.202    -129.485
  C     -391.000     943.842    -129.821
  C     -392.048     944.649    -130.169
  C     -391.789     946.035    -130.195
  N     -392.722     946.976    -130.578
  N     -393.183     943.917    -130.438
  C     -392.807     942.672    -130.281
  N     -391.508     942.553    -129.916
  O     -394.993     938.160    -126.247
  O     -396.002     940.506    -126.434
  H     -388.013     941.360    -128.731
  H     -395.016     938.367    -125.294
  H     -388.644     945.927    -129.249
  H     -393.457     941.801    -130.429
  H     -390.064     941.210    -130.541
  H     -389.677     942.437    -128.016
  H     -391.657     941.370    -127.059
  H     -390.646     938.798    -128.416
  H     -393.132     938.378    -128.620
  H     -392.410     947.915    -130.753
  H     -393.580     946.639    -131.017
  H     -392.482     938.272    -126.966
  P     -390.545     940.704    -124.831
  C     -389.833     938.575    -123.509
  O     -389.561     939.925    -123.807
  O     -391.970     940.011    -124.596
  O     -390.600     942.185    -124.717
  H     -392.497     940.543    -123.961
  H     -388.932     938.134    -123.065
  H     -390.092     938.010    -124.405
  H     -390.665     938.506    -122.791
  H     -397.102     937.892    -129.507
  H     -397.661     938.748    -128.090
  H     -396.690     937.306    -127.914

 3  4  5  6  7  8  9  10  11  12  22  25  29  30  31  32 0
 6-311+G(2d,p)
 ****
 33  36  37 0
 6-311+G(2d,p)
 ****
 1  2  13  14  15  16  17  18  19  20  21  23  24  26 0
 3-21G
 ****
 27  28  34  35  38  39  40  41  42  43  44  45  46  47  48 0
 3-21G
 ****


