%nproc=1
%NoSave
%Mem=1900MB
#P OB98/GEN NMR

erre ene a

0 1
  C      114.533       7.343    -196.399
  O      115.226       8.259    -195.542
  P      116.674       8.769    -195.999
  C      116.340      11.256    -196.679
  O      116.769      10.338    -195.686
  C      117.467      12.235    -197.020
  O      117.172      12.995    -198.214
  C      117.736      13.264    -195.930
  O      118.575      12.741    -194.908
  C      118.479      14.335    -196.713
  O      119.859      13.949    -196.880
  C      117.750      14.315    -198.060
  N      116.726      19.112    -199.302
  C      117.918      18.416    -199.347
  N      118.997      19.096    -199.797
  N      118.044      17.165    -198.984
  C      116.881      16.609    -198.574
  C      115.639      17.194    -198.484
  C      115.517      18.581    -198.873
  O      114.490      19.253    -198.841
  N      114.703      16.309    -198.016
  C      115.371      15.184    -197.843
  N      116.702      15.319    -198.150
  O      116.576       8.734    -197.597
  O      117.806       7.936    -195.497
  H      119.853      13.065    -197.295
  H      117.461       8.594    -197.980
  H      116.688      20.075    -199.588
  H      114.940      14.254    -197.499
  H      118.428      14.480    -198.905
  H      118.482      15.299    -196.199
  H      118.961      20.043    -200.138
  H      116.800      13.671    -195.529
  H      119.872      18.592    -199.867
  H      118.381      11.654    -197.198
  H      115.462      11.809    -196.334
  H      116.012      10.700    -197.561
  P      118.134      12.974    -193.383
  C      117.018      10.651    -193.071
  O      118.073      11.521    -192.714
  O      116.598      13.405    -193.521
  O      118.932      13.997    -192.654
  H      116.359      14.018    -192.802
  H      117.223       9.663    -192.651
  H      116.938      10.561    -194.157
  H      116.074      11.018    -192.657
  H      113.587       7.095    -195.965
  H      115.116       6.454    -196.516
  H      114.378       7.797    -197.356

 3  4  5  6  7  8  9  10  11  12  23  26  30  31 0
 6-311+G(2d,p)
 ****
 33  35  36  37  38 0
 6-311+G(2d,p)
 ****
 1  2  13  14  15  16  17  18  19  20  21  22  24  25 0
 3-21G
 ****
 27  28  29  32  34  39  40  41  42  43  44  45  46  47  48  49 0
 3-21G
 ****


