%nproc=1
%NoSave
%Mem=1900MB
#P OB98/GEN NMR

erre ene a

0 1
  C     -656.673    -879.715     221.612
  O     -655.587    -879.225     222.395
  P     -655.421    -879.570     223.955
  C     -656.998    -877.727     224.856
  O     -656.775    -879.130     224.723
  C     -658.447    -877.429     225.294
  O     -658.696    -877.950     226.615
  C     -658.805    -875.943     225.321
  O     -659.058    -875.471     224.015
  C     -660.009    -875.980     226.258
  O     -661.200    -876.354     225.539
  C     -659.616    -877.068     227.265
  N     -660.200    -873.698     231.070
  C     -660.976    -874.005     230.026
  N     -660.748    -874.917     229.030
  C     -659.588    -875.557     229.244
  C     -658.682    -875.349     230.288
  C     -659.033    -874.366     231.238
  N     -658.242    -874.039     232.296
  N     -657.592    -876.171     230.169
  C     -657.838    -876.894     229.076
  N     -659.042    -876.543     228.491
  O     -654.165    -879.038     224.573
  O     -655.452    -881.175     224.016
  H     -661.941    -876.263     226.174
  H     -654.942    -881.478     224.797
  H     -661.914    -873.443     229.930
  H     -657.179    -877.657     228.682
  H     -660.489    -877.676     227.565
  H     -660.192    -874.985     226.708
  H     -657.994    -875.387     225.793
  H     -659.096    -877.984     224.600
  H     -656.801    -877.262     223.874
  H     -658.534    -873.297     232.922
  H     -657.327    -874.492     232.397
  H     -656.296    -877.326     225.590
  P     -657.953    -874.581     223.258
  C     -658.937    -872.245     223.548
  O     -657.924    -873.152     223.949
  O     -658.058    -874.578     221.770
  O     -656.576    -875.237     223.729
  H     -655.898    -875.133     223.038
  H     -658.658    -871.789     222.594
  H     -659.028    -871.454     224.321
  H     -659.898    -872.757     223.458
  H     -656.578    -879.359     220.607
  H     -657.597    -879.369     222.027
  H     -656.660    -880.785     221.614

 3  4  5  6  7  8  9  10  11  12  22  25  29  30  31  32 0
 6-311+G(2d,p)
 ****
 33  36  37 0
 6-311+G(2d,p)
 ****
 1  2  13  14  15  16  17  18  19  20  21  23  24  26 0
 3-21G
 ****
 27  28  34  35  38  39  40  41  42  43  44  45  46  47  48 0
 3-21G
 ****


