%nproc=1
%NoSave
%Mem=1900MB
#P OB98/GEN NMR

erre ene a

0 1
  C     -156.926     -82.381      90.209
  O     -157.420     -81.160      90.775
  P     -156.601     -80.470      91.978
  C     -157.131     -82.428      93.641
  O     -157.172     -81.037      93.372
  C     -157.602     -82.714      95.070
  O     -156.664     -82.169      96.032
  C     -158.940     -82.077      95.426
  O     -160.034     -82.801      94.870
  C     -158.904     -82.124      96.948
  O     -159.300     -83.417      97.438
  C     -157.405     -81.873      97.233
  N     -157.148     -80.513      97.697
  C     -157.029     -80.343      99.080
  O     -157.199     -81.253      99.890
  N     -156.747     -79.062      99.497
  C     -156.640     -77.959      98.700
  O     -156.406     -76.841      99.142
  C     -156.854     -78.192      97.254
  C     -157.089     -79.434      96.842
  O     -157.195     -78.976      91.963
  O     -155.121     -80.457      91.834
  H     -158.675     -84.064      97.073
  H     -156.519     -78.358      92.310
  H     -156.634     -78.929     100.490
  H     -156.796     -77.340      96.600
  H     -157.251     -79.623      95.778
  H     -157.045     -82.577      97.997
  H     -159.572     -81.387      97.408
  H     -158.958     -81.030      95.094
  H     -157.644     -83.802      95.209
  H     -156.100     -82.786      93.527
  H     -157.765     -82.950      92.915
  P     -160.621     -82.252      93.480
  C     -161.532     -80.207      94.839
  O     -161.783     -81.235      93.888
  O     -161.384     -83.556      92.937
  O     -159.572     -81.727      92.559
  H     -161.758     -84.090      93.665
  H     -160.507     -79.847      94.773
  H     -161.735     -80.596      95.841
  H     -162.217     -79.377      94.637
  H     -157.582     -82.703      89.427
  H     -156.880     -83.133      90.969
  H     -155.947     -82.218      89.809

 3  4  5  6  7  8  9  10  11  12  13  23  28  29  30  31  32 0
 6-311+G(2d,p)
 ****
 33  34 0
 6-311+G(2d,p)
 ****
 1  2  14  15  16  17  18  19  20  21  22  24  25  26 0
 3-21G
 ****
 27  35  36  37  38  39  40  41  42  43  44  45 0
 3-21G
 ****


