%nproc=1
%NoSave
%Mem=1900MB
#P OB98/GEN NMR

erre ene a

0 1
  C      210.491    -259.686      86.576
  O      210.087    -258.712      85.611
  P      208.751    -258.953      84.764
  C      209.620    -260.650      83.018
  O      208.775    -260.429      84.141
  C      209.258    -261.979      82.344
  O      209.313    -263.080      83.284
  C      207.834    -262.001      81.802
  O      207.565    -261.180      80.686
  C      207.569    -263.491      81.654
  O      208.099    -263.999      80.430
  C      208.344    -264.066      82.862
  N      207.467    -264.455      83.966
  C      206.714    -265.608      83.767
  O      206.729    -266.257      82.726
  N      205.901    -265.974      84.810
  C      205.751    -265.296      85.987
  O      204.991    -265.657      86.877
  C      206.555    -264.070      86.123
  C      207.364    -263.713      85.126
  O      208.386    -257.864      83.810
  O      207.628    -259.083      85.908
  H      209.035    -263.719      80.380
  H      206.832    -258.604      85.600
  H      205.352    -266.811      84.689
  H      206.456    -263.508      87.042
  H      207.965    -262.815      85.207
  H      208.915    -264.956      82.561
  H      206.498    -263.712      81.656
  H      207.167    -261.640      82.600
  H      209.989    -262.180      81.557
  H      210.662    -260.658      83.334
  H      209.513    -259.812      82.321
  P      206.831    -259.759      80.795
  C      204.710    -260.801      81.862
  O      205.740    -259.842      81.965
  O      206.419    -259.102      79.519
  O      207.980    -258.866      81.482
  H      207.901    -257.953      81.145
  H      204.054    -260.700      82.734
  H      205.130    -261.810      81.853
  H      204.120    -260.631      80.957
  H      211.398    -259.368      87.046
  H      210.652    -260.625      86.089
  H      209.725    -259.795      87.315

 3  4  5  6  7  8  9  10  11  12  13  23  28  29  30  31  32 0
 6-311+G(2d,p)
 ****
 33  34 0
 6-311+G(2d,p)
 ****
 1  2  14  15  16  17  18  19  20  21  22  24  25  26  27 0
 3-21G
 ****
 35  36  37  38  39  40  41  42  43  44  45 0
 3-21G
 ****


