%nproc=1
%NoSave
%Mem=1900MB
#P OB98/GEN NMR

erre ene a

0 1
  C     -261.717    -149.371     839.232
  O     -260.655    -149.392     840.179
  P     -259.107    -149.282     839.812
  C     -258.715    -147.225     841.396
  O     -258.637    -147.775     840.089
  C     -257.921    -145.919     841.551
  O     -256.552    -146.132     841.131
  C     -258.491    -144.831     840.639
  O     -259.608    -144.067     841.052
  C     -257.286    -143.998     840.232
  O     -257.099    -142.859     841.072
  C     -256.116    -144.975     840.384
  N     -252.106    -144.844     837.209
  C     -252.278    -144.210     838.424
  N     -251.281    -143.396     838.827
  N     -253.343    -144.346     839.168
  C     -254.302    -145.120     838.609
  C     -254.256    -145.784     837.403
  C     -253.050    -145.674     836.614
  O     -252.840    -146.225     835.539
  N     -255.429    -146.452     837.155
  C     -256.187    -146.175     838.193
  N     -255.546    -145.371     839.110
  O     -258.707    -149.887     838.511
  O     -258.385    -150.126     840.986
  H     -256.405    -142.303     840.676
  H     -257.592    -150.534     840.584
  H     -251.253    -144.724     836.692
  H     -257.203    -146.529     838.333
  H     -255.300    -144.522     840.963
  H     -257.408    -143.612     839.211
  H     -250.492    -143.156     838.249
  H     -258.827    -145.331     839.716
  H     -251.493    -142.763     839.602
  H     -257.871    -145.617     842.601
  H     -258.337    -147.987     842.086
  H     -259.760    -147.057     841.666
  P     -260.802    -143.549     840.116
  C     -262.567    -144.855     841.436
  O     -261.980    -144.630     840.169
  O     -260.230    -143.721     838.629
  O     -261.224    -142.135     840.365
  H     -260.763    -143.199     837.999
  H     -263.113    -145.799     841.414
  H     -263.262    -144.039     841.666
  H     -261.800    -144.904     842.218
  H     -262.653    -149.461     839.743
  H     -261.603    -150.188     838.550
  H     -261.694    -148.449     838.690

 3  4  5  6  7  8  9  10  11  12  23  26  30  31 0
 6-311+G(2d,p)
 ****
 33  35  36  37  38 0
 6-311+G(2d,p)
 ****
 1  2  13  14  15  16  17  18  19  20  21  22  24  25 0
 3-21G
 ****
 27  28  29  32  34  39  40  41  42  43  44  45  46  47  48  49 0
 3-21G
 ****


