%nproc=1
%NoSave
%Mem=1900MB
#P OB98/GEN NMR

erre ene a

0 1
  C      221.607    -167.953     120.482
  O      222.996    -167.711     120.341
  P      223.536    -166.286     119.855
  C      223.217    -165.270     122.256
  O      223.003    -165.174     120.863
  C      223.152    -163.867     122.868
  O      224.389    -163.160     122.633
  C      222.015    -163.041     122.258
  O      220.847    -163.132     123.057
  C      222.611    -161.646     122.210
  O      222.501    -161.006     123.495
  C      224.094    -161.951     121.888
  N      224.465    -162.180     120.478
  C      225.767    -161.924     120.056
  O      226.660    -161.538     120.804
  N      226.006    -162.104     118.718
  C      225.100    -162.552     117.799
  O      225.249    -162.478     116.585
  C      223.841    -163.059     118.351
  C      223.572    -162.830     119.638
  O      222.693    -166.017     118.522
  O      225.008    -166.208     119.612
  H      222.976    -160.158     123.434
  H      223.215    -166.243     117.732
  H      226.909    -161.789     118.382
  H      223.146    -163.550     117.678
  H      222.628    -163.163     120.058
  H      224.749    -161.157     122.268
  H      222.071    -161.013     121.510
  H      221.816    -163.374     121.232
  H      223.015    -163.956     123.951
  H      224.193    -165.728     122.454
  H      222.459    -165.917     122.709
  P      219.424    -162.792     122.416
  C      218.997    -165.182     121.603
  O      219.234    -163.844     121.221
  O      219.210    -161.359     122.050
  O      218.389    -163.280     123.537
  H      218.102    -162.514     124.080
  H      218.710    -165.756     120.715
  H      218.189    -165.237     122.337
  H      219.910    -165.613     122.021
  H      221.452    -168.958     120.815
  H      221.123    -167.811     119.539
  H      221.197    -167.273     121.199

 3  4  5  6  7  8  9  10  11  12  13  23  28  29  30  31  32 0
 6-311+G(2d,p)
 ****
 33  34 0
 6-311+G(2d,p)
 ****
 1  2  14  15  16  17  18  19  20  21  22  24  25  26  27 0
 3-21G
 ****
 35  36  37  38  39  40  41  42  43  44  45 0
 3-21G
 ****


