%nproc=1
%NoSave
%Mem=1900MB
#P OB98/GEN NMR

erre ene a

0 1
  C       90.834    -898.340     326.855
  O       90.385    -898.790     325.582
  H       91.919    -898.480     326.907
  H       90.362    -898.910     327.648
  H       90.614    -897.270     326.972
  P       88.849    -898.600     325.194
  C       88.171    -897.430     322.993
  O       88.779    -898.570     323.587
  C       88.955    -896.970     321.765
  O       90.128    -896.230     322.206
  C       89.447    -898.130     320.890
  O       89.356    -897.720     319.512
  C       90.906    -898.280     321.277
  O       91.703    -898.840     320.225
  C       91.292    -896.830     321.623
  N       96.263    -897.610     322.046
  C       95.456    -897.700     320.933
  N       96.026    -898.040     319.749
  N       94.159    -897.440     320.969
  C       93.723    -897.080     322.199
  C       94.432    -896.980     323.358
  C       95.854    -897.280     323.309
  O       96.628    -897.250     324.254
  N       93.631    -896.620     324.424
  C       92.410    -896.510     323.879
  N       92.427    -896.790     322.537
  O       88.151    -897.450     325.854
  O       88.165    -900.000     325.572
  H       92.636    -898.710     320.472
  H       87.697    -899.940     326.427
  H       97.251    -897.820     321.938
  H       91.503    -896.240     324.417
  H       91.578    -896.250     320.730
  H       90.994    -898.930     322.154
  H       97.005    -898.230     319.641
  H       88.870    -899.050     321.041
  H       95.432    -898.060     318.922
  H       88.341    -896.270     321.201
  H       88.150    -896.630     323.743
  H       87.133    -897.660     322.714
  P       87.904    -897.600     318.848
  C       87.185    -895.460     317.590
  O       88.028    -896.630     317.571
  O       86.784    -897.320     319.783
  O       87.713    -899.050     318.147
  H       86.752    -899.270     318.152
  H       87.347    -894.889     316.699
  H       87.424    -894.862     318.445
  H       86.159    -895.760     317.640

 6  7  8  9  10  11  12  13  14  15  26  29  33  34 0
 6-311+G(2d,p)
 ****
 36  38  39  40  41 0
 6-311+G(2d,p)
 ****
 1  2  3  4  5  16  17  18  19  20  21  22  23  24  25 0
 3-21G
 ****
 27  28  30  31  32  35  37  42  43  44  45  46  47 0
 3-21G
 ****
 48  49 0
 3-21G
 ****


