%nproc=1
%NoSave
%Mem=1900MB
#P OB98/GEN NMR

erre ene a

0 1
  C      283.708      51.636      30.472
  O      284.743      51.448      29.528
  H      283.028      50.788      30.419
  H      283.152      52.548      30.244
  H      284.123      51.692      31.485
  P      285.886      52.583      29.452
  C      287.811      50.851      29.710
  O      287.187      51.827      28.882
  C      289.186      50.474      29.142
  O      289.006      49.522      28.066
  C      289.972      51.671      28.589
  O      291.342      51.563      28.990
  C      289.842      51.536      27.078
  O      290.927      52.144      26.393
  C      289.722      50.013      26.913
  N      289.027      49.654      25.666
  C      289.839      49.341      24.572
  O      291.069      49.378      24.665
  N      289.233      49.039      23.377
  C      287.941      49.103      23.262
  N      287.404      48.820      22.041
  C      287.051      49.483      24.380
  C      287.660      49.742      25.543
  O      286.235      52.837      30.992
  O      285.507      53.821      28.703
  H      291.761      51.749      26.725
  H      286.774      53.659      31.110
  H      285.982      49.541      24.239
  H      287.087      50.023      26.423
  H      290.715      49.545      26.903
  H      288.916      52.019      26.756
  H      289.574      52.625      28.924
  H      289.755      49.957      29.922
  H      288.047      48.578      21.301
  H      287.172      49.961      29.759
  H      286.421      48.868      21.841
  H      287.941      51.261      30.715
  P      291.898      52.769      29.896
  C      292.210      51.360      32.050
  O      292.838      52.133      31.038
  O      290.608      53.277      30.699
  O      292.542      53.872      29.098
  H      290.224      54.069      30.271
  H      292.949      51.003      32.736
  H      291.707      50.528      31.603
  H      291.501      51.966      32.574

 6  7  8  9  10  11  12  13  14  15  16  26  30  31  32  33  35 0
 6-311+G(2d,p)
 ****
 37  38 0
 6-311+G(2d,p)
 ****
 1  2  3  4  5  17  18  19  20  21  22  23  24  25 0
 3-21G
 ****
 27  28  29  34  36  39  40  41  42  43  44  45  46 0
 3-21G
 ****


