%nproc=1
%NoSave
%Mem=1900MB
#P OB98/GEN NMR

erre ene a

0 1
  C        9.450       6.708     -44.594
  O        8.868       7.194     -43.402
  H       10.416       7.201     -44.737
  H        8.804       6.946     -45.444
  H        9.611       5.628     -44.546
  P        7.635       6.396     -42.764
  C        8.494       6.686     -40.347
  O        7.441       6.938     -41.267
  C        8.363       7.570     -39.102
  O        8.750       8.928     -39.427
  C        6.903       7.622     -38.632
  O        6.798       7.837     -37.228
  C        6.359       8.840     -39.364
  O        5.196       9.389     -38.746
  C        7.578       9.762     -39.344
  N        6.595      14.548     -40.791
  C        6.308      13.924     -39.595
  N        5.658      14.661     -38.666
  N        6.620      12.679     -39.335
  C        7.201      12.040     -40.380
  C        7.511      12.547     -41.622
  C        7.197      13.934     -41.882
  O        7.408      14.537     -42.933
  N        8.076      11.588     -42.429
  C        8.103      10.504     -41.681
  N        7.596      10.731     -40.421
  O        8.217       4.922     -42.526
  O        6.384       6.365     -43.591
  H        4.749       9.945     -39.410
  H        7.497       4.268     -42.517
  H        6.346      15.514     -40.934
  H        8.483       9.536     -41.994
  H        7.624      10.317     -38.398
  H        6.072       8.531     -40.375
  H        5.246      15.555     -38.884
  H        6.356       6.718     -38.896
  H        5.188      14.146     -37.918
  H        9.047       7.223     -38.317
  H        9.436       6.904     -40.865
  H        8.508       5.629     -40.070
  P        5.947       6.778     -36.375
  C        7.774       6.377     -34.535
  O        6.470       6.827     -34.863
  O        6.459       5.363     -36.927
  O        4.470       6.935     -36.521
  H        5.781       4.963     -37.506
  H        7.936       6.489     -33.483
  H        8.497       6.956     -35.071
  H        7.873       5.346     -34.803

 6  7  8  9  10  11  12  13  14  15  26  29  33  34 0
 6-311+G(2d,p)
 ****
 36  38  39  40  41 0
 6-311+G(2d,p)
 ****
 1  2  3  4  5  16  17  18  19  20  21  22  23  24  25 0
 3-21G
 ****
 27  28  30  31  32  35  37  42  43  44  45  46  47 0
 3-21G
 ****
 48  49 0
 3-21G
 ****


