%nproc=1
%NoSave
%Mem=1900MB
#P OB98/GEN NMR

erre ene a

0 1
  C      266.743     519.889     622.170
  O      267.424     518.664     622.388
  P      266.683     517.315     621.872
  C      264.864     517.500     623.740
  O      265.888     516.735     623.137
  C      264.088     516.651     624.722
  O      263.282     515.650     624.007
  C      264.965     515.833     625.707
  O      265.355     516.651     626.793
  C      264.022     514.711     626.105
  O      263.097     515.138     627.119
  C      263.295     514.414     624.779
  N      265.525     509.870     624.990
  C      265.179     510.728     626.015
  N      265.406     510.295     627.289
  N      264.637     511.906     625.812
  C      264.471     512.230     624.516
  C      264.807     511.440     623.397
  C      265.336     510.134     623.638
  O      265.568     509.287     622.773
  N      264.495     512.090     622.234
  C      263.965     513.245     622.623
  N      263.900     513.367     623.995
  O      267.903     516.296     621.659
  O      265.854     517.499     620.633
  H      263.579     515.331     627.948
  H      268.159     516.255     620.704
  H      265.911     508.968     625.209
  H      263.597     514.006     621.952
  H      262.245     514.134     624.937
  H      264.559     513.836     626.516
  H      265.849     509.428     627.501
  H      265.839     515.434     625.199
  H      265.146     510.924     628.038
  H      263.398     517.277     625.297
  H      264.196     517.880     622.987
  H      265.317     518.370     624.277
  P      266.924     517.015     626.938
  C      267.943     514.711     627.539
  O      267.546     515.985     628.001
  O      266.906     518.408     627.709
  O      267.645     517.123     625.635
  H      267.649     518.989     627.386
  H      268.784     514.356     628.179
  H      268.296     514.726     626.491
  H      267.123     514.000     627.642
  H      267.331     520.697     622.552
  H      265.799     519.866     622.673
  H      266.585     520.028     621.121

 3  4  5  6  7  8  9  10  11  12  23  26  30  31 0
 6-311+G(2d,p)
 ****
 33  35  36  37  38 0
 6-311+G(2d,p)
 ****
 1  2  13  14  15  16  17  18  19  20  21  22  24  25 0
 3-21G
 ****
 27  28  29  32  34  39  40  41  42  43  44  45  46  47  48  49 0
 3-21G
 ****


