%nproc=1
%NoSave
%Mem=1900MB
#P OB98/GEN NMR

erre ene a

0 1
  C     -113.694    -242.620     120.010
  O     -112.904    -241.579     119.457
  P     -113.592    -240.250     118.880
  C     -114.345    -240.987     116.535
  O     -113.372    -240.273     117.290
  C     -113.714    -241.602     115.285
  O     -114.662    -242.516     114.684
  C     -113.337    -240.571     114.229
  O     -112.132    -240.989     113.582
  C     -114.468    -240.639     113.215
  O     -114.029    -240.217     111.914
  C     -114.875    -242.113     113.316
  N     -118.145    -243.943     109.808
  C     -116.796    -243.913     109.847
  N     -115.991    -243.391     110.798
  C     -116.721    -242.904     111.815
  C     -118.107    -242.865     111.917
  C     -118.831    -243.414     110.847
  N     -120.209    -243.454     110.814
  N     -118.492    -242.258     113.098
  C     -117.364    -241.954     113.702
  N     -116.266    -242.335     112.973
  O     -113.172    -238.983     119.544
  O     -115.162    -240.510     119.032
  H     -113.672    -239.308     112.011
  H     -115.618    -239.686     119.292
  H     -116.294    -244.373     108.999
  H     -117.286    -241.454     114.654
  H     -114.252    -242.750     112.675
  H     -115.281    -239.973     113.530
  H     -113.208    -239.564     114.639
  H     -112.838    -242.189     115.588
  H     -115.130    -240.287     116.235
  H     -120.640    -243.976     110.067
  H     -120.713    -243.219     111.662
  H     -114.794    -241.767     117.163
  P     -110.990    -239.865     113.425
  C     -111.492    -239.515     110.892
  O     -110.570    -239.923     111.880
  O     -109.900    -240.029     114.436
  O     -111.851    -238.522     113.580
  H     -112.791    -238.669     113.330
  H     -111.037    -239.665     109.908
  H     -111.727    -238.456     111.009
  H     -112.407    -240.114     110.955
  H     -113.057    -243.415     120.338
  H     -114.370    -242.988     119.267
  H     -114.250    -242.242     120.842

 3  4  5  6  7  8  9  10  11  12  22  25  29  30  31  32 0
 6-311+G(2d,p)
 ****
 33  36  37 0
 6-311+G(2d,p)
 ****
 1  2  13  14  15  16  17  18  19  20  21  23  24  26 0
 3-21G
 ****
 27  28  34  35  38  39  40  41  42  43  44  45  46  47  48 0
 3-21G
 ****


