%nproc=1
%NoSave
%Mem=1900MB
#P OB98/GEN NMR

erre ene a

0 1
  C      152.443     112.610     285.592
  O      151.253     112.278     284.881
  P      150.108     111.488     285.678
  C      150.245     108.931     286.246
  O      150.197     109.945     285.258
  C      149.633     107.620     285.722
  O      148.209     107.823     285.533
  C      150.156     107.149     284.369
  O      149.843     105.763     284.214
  C      149.318     107.967     283.411
  O      149.329     107.414     282.098
  C      147.942     107.994     284.116
  N      147.184     109.243     283.889
  C      146.819     109.568     282.585
  O      147.088     108.878     281.603
  N      146.152     110.752     282.423
  C      145.786     111.607     283.420
  O      145.268     112.697     283.211
  C      146.071     111.149     284.786
  C      146.754     110.018     284.955
  O      148.756     112.005     284.999
  O      150.128     111.730     287.149
  H      149.015     108.125     281.493
  H      148.298     112.627     285.592
  H      145.940     111.033     281.477
  H      145.736     111.770     285.608
  H      146.992     109.674     285.959
  H      147.308     107.163     283.777
  H      149.722     108.982     283.341
  H      151.227     107.308     284.214
  H      149.757     106.837     286.479
  H      149.721     109.264     287.143
  H      151.288     108.753     286.537
  P      151.019     104.696     284.434
  C      153.192     104.239     283.140
  O      152.269     105.219     283.575
  O      150.650     103.265     284.233
  O      151.486     104.985     285.942
  H      151.979     104.217     286.284
  H      153.647     104.577     282.206
  H      152.706     103.275     282.970
  H      153.974     104.123     283.895
  H      153.114     113.131     284.941
  H      152.911     111.714     285.943
  H      152.198     113.234     286.426

 3  4  5  6  7  8  9  10  11  12  13  23  28  29  30  31  32 0
 6-311+G(2d,p)
 ****
 33  34 0
 6-311+G(2d,p)
 ****
 1  2  14  15  16  17  18  19  20  21  22  24  25  26  27 0
 3-21G
 ****
 35  36  37  38  39  40  41  42  43  44  45 0
 3-21G
 ****


