%nproc=1
%NoSave
%Mem=1900MB
#P OB98/GEN NMR

erre ene a

0 1
  C     -214.378      12.995    -256.648
  O     -215.612      12.503    -256.162
  P     -216.606      13.466    -255.353
  C     -217.008      12.566    -252.979
  O     -216.207      13.409    -253.802
  C     -216.618      11.102    -253.174
  O     -215.187      10.969    -253.339
  C     -216.964      10.204    -251.997
  O     -218.354       9.949    -251.911
  C     -216.103       8.982    -252.296
  O     -216.737       8.139    -253.275
  C     -214.834       9.635    -252.891
  N     -213.729       9.667    -251.944
  C     -213.139       8.434    -251.655
  O     -213.598       7.390    -252.125
  N     -212.035       8.413    -250.833
  C     -211.649       9.506    -250.251
  N     -210.520       9.439    -249.495
  C     -212.350      10.796    -250.408
  C     -213.360      10.808    -251.277
  O     -218.057      13.264    -255.637
  O     -216.148      14.943    -255.781
  H     -216.933      15.448    -256.062
  H     -216.120       7.398    -253.440
  H     -212.027      11.663    -249.846
  H     -213.917      11.720    -251.472
  H     -214.518       9.096    -253.793
  H     -215.920       8.368    -251.408
  H     -216.621      10.670    -251.065
  H     -217.103      10.738    -254.092
  H     -210.054       8.540    -249.426
  H     -218.059      12.707    -253.255
  H     -209.959      10.257    -249.276
  H     -216.886      12.860    -251.933
  P     -218.950       9.659    -250.450
  C     -219.781       7.253    -249.952
  O     -218.670       8.119    -250.118
  O     -220.535       9.717    -250.680
  O     -218.520      10.627    -249.399
  H     -220.965      10.115    -249.898
  H     -219.445       6.223    -250.081
  H     -220.564       7.466    -250.687
  H     -220.185       7.371    -248.943
  H     -213.857      12.211    -257.158
  H     -213.785      13.343    -255.828
  H     -214.558      13.803    -257.326

 3  4  5  6  7  8  9  10  11  12  13  24  27  28  29  30  32 0
 6-311+G(2d,p)
 ****
 34  35 0
 6-311+G(2d,p)
 ****
 1  2  14  15  16  17  18  19  20  21  22  23  25  26 0
 3-21G
 ****
 31  33  36  37  38  39  40  41  42  43  44  45  46 0
 3-21G
 ****


