%nproc=1
%NoSave
%Mem=1900MB
#P OB98/GEN NMR

erre ene a

0 1
  C      -90.345     220.518      49.583
  O      -91.179     220.576      48.437
  P      -91.497     219.188      47.676
  C      -94.125     219.087      47.688
  O      -92.897     218.677      48.268
  C      -95.122     219.486      48.789
  O      -94.667     220.669      49.461
  C      -96.526     219.813      48.288
  O      -97.259     218.646      47.976
  C      -97.076     220.624      49.451
  O      -97.521     219.740      50.503
  C      -95.831     221.409      49.904
  N      -95.814     222.788      49.437
  C      -95.417     223.758      50.350
  O      -95.094     223.498      51.499
  N      -95.430     225.057      49.889
  C      -95.849     225.470      48.660
  O      -95.895     226.648      48.316
  C      -96.289     224.408      47.735
  C      -96.252     223.135      48.163
  O      -90.403     218.233      48.344
  O      -91.424     219.305      46.191
  H      -90.152     218.530      49.245
  H      -97.857     220.321      51.220
  H      -95.126     225.772      50.531
  H      -96.644     224.689      46.762
  H      -96.581     222.342      47.509
  H      -95.765     221.427      51.013
  H      -97.924     221.254      49.171
  H      -96.465     220.451      47.388
  H      -95.163     218.675      49.531
  H      -94.538     218.253      47.112
  H      -93.945     219.942      47.015
  P      -97.814     218.512      46.470
  C      -96.380     216.426      45.792
  O      -96.641     217.812      45.622
  O      -97.779     220.043      45.997
  O      -99.160     217.871      46.377
  H      -96.970     220.509      46.282
  H      -95.833     216.066      44.919
  H      -97.286     215.848      45.906
  H      -95.742     216.287      46.696
  H      -90.220     221.502      49.983
  H      -89.390     220.120      49.309
  H      -90.796     219.888      50.321

 3  4  5  6  7  8  9  10  11  12  13  24  28  29  30  31  32 0
 6-311+G(2d,p)
 ****
 33  34 0
 6-311+G(2d,p)
 ****
 1  2  14  15  16  17  18  19  20  21  22  23  25  26  27 0
 3-21G
 ****
 35  36  37  38  39  40  41  42  43  44  45 0
 3-21G
 ****


