%nproc=1
%NoSave
%Mem=1900MB
#P OB98/GEN NMR

erre ene a

0 1
  C     -106.193    -145.711     158.123
  O     -106.304    -145.609     156.716
  H     -105.865    -146.721     158.377
  H     -107.164    -145.526     158.592
  H     -105.453    -144.996     158.495
  P     -106.752    -144.180     156.134
  C     -105.605    -144.068     153.813
  O     -106.784    -144.392     154.543
  C     -105.938    -143.809     152.344
  O     -106.349    -145.026     151.697
  C     -107.081    -142.818     152.127
  O     -106.616    -141.479     152.239
  C     -107.477    -143.154     150.695
  O     -106.562    -142.534     149.776
  C     -107.306    -144.687     150.655
  N     -112.281    -145.179     149.465
  C     -111.390    -144.198     149.208
  N     -110.094    -144.116     149.591
  C     -109.742    -145.189     150.317
  C     -110.545    -146.267     150.664
  C     -111.868    -146.245     150.197
  N     -112.777    -147.253     150.459
  N     -109.839    -147.180     151.422
  C     -108.618    -146.685     151.484
  N     -108.517    -145.464     150.863
  O     -105.978    -143.007     156.632
  O     -108.314    -144.176     156.509
  H     -106.919    -142.654     148.875
  H     -108.698    -145.062     156.384
  H     -111.760    -143.373     148.608
  H     -107.770    -147.177     151.951
  H     -106.885    -145.022     149.700
  H     -108.478    -142.791     150.447
  H     -107.924    -143.025     152.792
  H     -105.022    -143.468     151.847
  H     -104.875    -144.880     153.890
  H     -113.743    -147.079     150.233
  H     -112.506    -147.980     151.103
  H     -105.177    -143.167     154.265
  P     -107.504    -140.366     152.978
  C     -105.680    -139.272     154.428
  O     -106.526    -139.130     153.290
  O     -108.279    -140.857     154.160
  O     -108.462    -139.791     151.835
  H     -109.351    -139.608     152.198
  H     -105.078    -138.394     154.536
  H     -105.047    -140.125     154.298
  H     -106.280    -139.404     155.304

 6  7  8  9  10  11  12  13  14  15  25  28  32  33  34  35 0
 6-311+G(2d,p)
 ****
 36  39  40 0
 6-311+G(2d,p)
 ****
 1  2  3  4  5  16  17  18  19  20  21  22  23  24 0
 3-21G
 ****
 26  27  29  30  31  37  38  41  42  43  44  45  46  47 0
 3-21G
 ****
 48 0
 3-21G
 ****


