%nproc=1
%NoSave
%Mem=1900MB
#P OB98/GEN NMR

erre ene a

0 1
  C     -246.319     363.365     178.007
  O     -246.630     362.914     179.338
  P     -245.514     362.551     180.433
  C     -245.044     364.716     181.769
  O     -245.751     363.483     181.718
  C     -244.227     364.816     183.067
  O     -243.278     365.914     182.977
  C     -245.029     365.118     184.322
  O     -245.778     364.007     184.764
  C     -243.932     365.560     185.283
  O     -243.305     364.431     185.913
  C     -242.929     366.260     184.339
  N     -242.882     367.702     184.516
  C     -242.860     368.170     185.831
  O     -242.952     367.387     186.771
  N     -242.739     369.529     186.038
  C     -242.751     370.338     185.028
  N     -242.622     371.668     185.302
  C     -242.923     369.889     183.637
  C     -242.979     368.572     183.452
  O     -244.115     362.595     179.912
  O     -245.891     361.082     180.948
  H     -245.089     360.633     181.267
  H     -242.491     364.768     186.343
  H     -242.974     370.610     182.825
  H     -243.086     368.156     182.456
  H     -241.918     365.853     184.483
  H     -244.306     366.210     186.083
  H     -245.700     365.964     184.120
  H     -243.659     363.877     183.192
  H     -242.493     371.941     186.263
  H     -245.767     365.538     181.747
  H     -242.594     372.377     184.584
  H     -244.393     364.797     180.891
  P     -247.366     364.065     184.560
  C     -247.995     362.946     182.304
  O     -247.796     362.793     183.694
  O     -247.572     365.301     183.556
  O     -248.146     364.260     185.818
  H     -248.368     365.803     183.809
  H     -247.801     361.994     181.809
  H     -247.330     363.712     181.881
  H     -249.038     363.236     182.111
  H     -247.227     363.541     177.469
  H     -245.745     362.617     177.502
  H     -245.754     364.272     178.061

 3  4  5  6  7  8  9  10  11  12  13  24  27  28  29  30  32 0
 6-311+G(2d,p)
 ****
 34  35 0
 6-311+G(2d,p)
 ****
 1  2  14  15  16  17  18  19  20  21  22  23  25  26 0
 3-21G
 ****
 31  33  36  37  38  39  40  41  42  43  44  45  46 0
 3-21G
 ****


