%nproc=1
%NoSave
%Mem=1900MB
#P OB98/GEN NMR

erre ene a

0 1
  C      -75.702     -18.618     111.986
  O      -76.933     -18.390     111.295
  P      -77.211     -16.891     110.788
  C      -77.360     -17.623     108.305
  O      -77.997     -16.961     109.388
  C      -78.377     -18.187     107.305
  O      -78.994     -19.397     107.818
  C      -79.507     -17.212     106.964
  O      -79.871     -17.437     105.598
  C      -80.644     -17.679     107.855
  O      -81.904     -17.227     107.365
  C      -80.425     -19.203     107.814
  N      -81.071     -19.903     108.922
  C      -82.415     -20.247     108.761
  O      -83.029     -19.898     107.748
  N      -83.050     -20.939     109.761
  C      -82.410     -21.219     110.857
  N      -83.093     -21.902     111.815
  C      -81.008     -20.821     111.098
  C      -80.408     -20.179     110.097
  O      -75.756     -16.359     110.382
  O      -77.842     -16.016     111.826
  H      -82.605     -17.774     107.781
  H      -75.592     -15.489     110.791
  H      -80.520     -21.058     112.031
  H      -79.379     -19.853     110.175
  H      -80.817     -19.622     106.881
  H      -80.509     -17.297     108.875
  H      -79.235     -16.162     107.106
  H      -77.839     -18.459     106.388
  H      -84.052     -22.163     111.609
  H      -76.738     -18.438     108.681
  H      -82.695     -22.169     112.701
  H      -76.674     -16.922     107.814
  P      -79.673     -16.239     104.554
  C      -78.696     -17.944     102.895
  O      -79.681     -16.948     103.111
  O      -78.111     -15.907     104.736
  O      -80.510     -15.012     104.705
  H      -77.874     -15.132     104.190
  H      -78.892     -18.426     101.934
  H      -78.741     -18.702     103.686
  H      -77.705     -17.488     102.865
  H      -75.637     -19.648     112.269
  H      -75.666     -18.004     112.862
  H      -74.882     -18.372     111.344

 3  4  5  6  7  8  9  10  11  12  13  21  23  27  28  29  30  32 0
 6-311+G(2d,p)
 ****
 34  35 0
 6-311+G(2d,p)
 ****
 1  2  14  15  16  17  18  19  20  22  24  25  26 0
 3-21G
 ****
 31  33  36  37  38  39  40  41  42  43  44  45  46 0
 3-21G
 ****


