%nproc=1
%NoSave
%Mem=1900MB
#P OB98/GEN NMR

erre ene a

0 1
  C      871.376    -865.361    -233.732
  O      872.548    -865.924    -233.179
  H      871.296    -864.317    -233.418
  H      870.500    -865.906    -233.357
  H      871.396    -865.404    -234.827
  P      873.071    -867.305    -233.807
  C      872.564    -868.946    -231.862
  O      873.553    -868.216    -232.575
  C      873.190    -870.162    -231.184
  O      874.150    -869.694    -230.181
  C      872.174    -871.076    -230.457
  O      872.591    -872.438    -230.605
  C      872.344    -870.674    -229.004
  O      871.924    -871.701    -228.115
  C      873.841    -870.390    -228.960
  N      875.630    -870.790    -224.284
  C      875.559    -871.726    -225.306
  N      875.975    -872.984    -225.019
  N      875.117    -871.459    -226.500
  C      874.754    -870.151    -226.652
  C      874.764    -869.130    -225.733
  C      875.247    -869.456    -224.406
  O      875.307    -868.689    -223.448
  N      874.252    -867.976    -226.271
  C      873.912    -868.303    -227.502
  N      874.195    -869.610    -227.782
  O      874.445    -866.866    -234.510
  O      872.141    -867.961    -234.766
  H      870.956    -871.671    -228.047
  H      874.288    -866.670    -235.453
  H      875.963    -871.053    -223.377
  H      873.448    -867.634    -228.215
  H      874.445    -871.312    -228.931
  H      871.757    -869.769    -228.799
  H      876.361    -873.257    -224.128
  H      871.145    -870.959    -230.816
  H      875.971    -873.664    -225.770
  H      873.754    -870.732    -231.921
  H      871.797    -869.294    -232.568
  H      872.090    -868.293    -231.130
  P      871.599    -873.461    -231.334
  C      871.980    -875.512    -229.771
  O      872.118    -874.961    -231.067
  O      871.909    -873.222    -232.877
  O      870.152    -873.225    -231.024
  H      871.091    -873.338    -233.403
  H      872.371    -876.508    -229.763
  H      870.945    -875.533    -229.501
  H      872.520    -874.911    -229.069

 6  7  8  9  10  11  12  13  14  15  26  29  33  34 0
 6-311+G(2d,p)
 ****
 36  38  39  40  41 0
 6-311+G(2d,p)
 ****
 1  2  3  4  5  16  17  18  19  20  21  22  23  24  25 0
 3-21G
 ****
 27  28  30  31  32  35  37  42  43  44  45  46  47 0
 3-21G
 ****
 48  49 0
 3-21G
 ****


