%nproc=1
%NoSave
%Mem=1900MB
#P OB98/GEN NMR

erre ene a

0 1
  C      -71.623     176.761     243.291
  O      -70.796     177.128     244.374
  H      -72.628     176.559     243.670
  H      -71.242     175.853     242.817
  H      -71.685     177.567     242.555
  P      -69.313     177.654     244.071
  C      -68.287     179.953     243.499
  O      -69.383     179.256     244.068
  C      -68.687     181.388     243.133
  O      -69.772     181.334     242.156
  C      -69.194     182.227     244.325
  O      -68.858     183.593     244.049
  C      -70.691     181.993     244.222
  O      -71.433     182.864     245.037
  C      -70.860     182.114     242.701
  N      -72.138     181.651     242.174
  C      -72.676     182.335     241.089
  O      -72.147     183.302     240.540
  N      -73.883     181.872     240.634
  C      -74.577     180.811     241.133
  O      -75.638     180.424     240.661
  C      -73.962     180.132     242.283
  C      -72.787     180.573     242.740
  O      -68.640     177.050     242.884
  O      -68.517     177.337     245.425
  H      -67.974     176.536     245.305
  H      -71.041     182.873     245.936
  H      -74.285     182.355     239.844
  H      -74.490     179.292     242.712
  H      -72.304     180.086     243.581
  H      -70.697     183.150     242.389
  H      -70.936     180.984     244.563
  H      -68.753     181.927     245.279
  H      -67.838     181.877     242.639
  H      -67.973     179.418     242.596
  H      -67.457     179.964     244.212
  P      -68.171     184.569     245.123
  C      -65.954     183.807     246.228
  O      -66.583     184.336     245.063
  O      -68.742     184.454     246.499
  O      -68.364     186.046     244.539
  H      -68.364     186.691     245.271
  H      -64.904     183.704     246.051
  H      -66.373     182.849     246.456
  H      -66.113     184.471     247.052

 6  7  8  9  10  11  12  13  14  15  16  27  31  32  33  34  35 0
 6-311+G(2d,p)
 ****
 36  37 0
 6-311+G(2d,p)
 ****
 1  2  3  4  5  17  18  19  20  21  22  23  24  25 0
 3-21G
 ****
 26  28  29  30  38  39  40  41  42  43  44  45 0
 3-21G
 ****


