%nproc=1
%NoSave
%Mem=1900MB
#P OB98/GEN NMR

erre ene a

0 1
  C      300.206    -231.188    -155.659
  O      301.001    -232.356    -155.719
  H      300.180    -230.732    -156.653
  H      300.623    -230.466    -154.953
  H      299.185    -231.447    -155.366
  P      301.425    -233.053    -154.337
  C      303.838    -232.140    -154.313
  O      303.012    -233.292    -154.450
  C      305.296    -232.458    -154.645
  O      305.809    -233.473    -153.756
  C      305.505    -233.022    -156.041
  O      305.242    -232.117    -157.089
  C      306.890    -233.640    -155.924
  O      307.932    -232.681    -156.089
  C      306.872    -234.155    -154.463
  N      306.725    -235.603    -154.386
  C      307.895    -236.342    -154.514
  O      309.002    -235.836    -154.704
  N      307.752    -237.702    -154.451
  C      306.574    -238.377    -154.323
  O      306.511    -239.602    -154.293
  C      305.363    -237.543    -154.229
  C      305.494    -236.215    -154.266
  O      300.650    -234.283    -153.969
  O      301.314    -231.873    -153.263
  H      307.895    -232.082    -155.318
  H      301.311    -232.231    -152.340
  H      308.592    -238.255    -154.527
  H      304.414    -238.046    -154.138
  H      304.616    -235.578    -154.194
  H      307.807    -233.883    -153.953
  H      307.056    -234.428    -156.662
  H      304.806    -233.856    -156.183
  H      305.887    -231.548    -154.486
  H      303.771    -231.802    -153.272
  H      303.467    -231.343    -154.968
  P      304.389    -232.485    -158.384
  C      306.216    -231.422    -159.925
  O      304.839    -231.517    -159.581
  O      302.929    -232.726    -158.184
  O      305.057    -233.891    -158.822
  H      304.344    -234.441    -159.207
  H      306.334    -230.737    -160.738
  H      306.578    -232.386    -160.215
  H      306.771    -231.072    -159.080

 6  7  8  9  10  11  12  13  14  15  16  26  31  32  33  34  35 0
 6-311+G(2d,p)
 ****
 36  37 0
 6-311+G(2d,p)
 ****
 1  2  3  4  5  17  18  19  20  21  22  23  24  25 0
 3-21G
 ****
 27  28  29  30  38  39  40  41  42  43  44  45 0
 3-21G
 ****


