%nproc=1
%NoSave
%Mem=1900MB
#P OB98/GEN NMR

erre ene a

0 1
  C      -45.710     -28.450     -12.778
  O      -45.714     -27.087     -12.389
  P      -44.361     -26.329     -11.969
  C      -44.831     -26.677      -9.450
  O      -43.962     -26.934     -10.539
  C      -44.067     -26.769      -8.127
  O      -45.008     -26.595      -7.036
  C      -43.344     -28.104      -7.907
  O      -42.135     -27.819      -7.195
  C      -44.313     -28.873      -7.031
  O      -43.681     -29.913      -6.299
  C      -44.884     -27.741      -6.170
  N      -46.167     -28.087      -5.570
  C      -46.195     -28.342      -4.198
  O      -45.166     -28.301      -3.526
  N      -47.398     -28.643      -3.610
  C      -48.463     -28.764      -4.341
  N      -49.641     -29.005      -3.703
  C      -48.456     -28.609      -5.807
  C      -47.293     -28.253      -6.343
  O      -44.436     -24.843     -12.018
  O      -43.244     -26.960     -12.919
  H      -44.374     -30.455      -5.876
  H      -43.193     -26.516     -13.802
  H      -49.365     -28.748      -6.376
  H      -47.200     -28.093      -7.408
  H      -44.170     -27.466      -5.385
  H      -45.090     -29.325      -7.656
  H      -43.100     -28.612      -8.844
  H      -43.355     -25.936      -8.081
  H      -49.634     -28.931      -2.691
  H      -45.622     -27.432      -9.453
  H      -50.527     -28.790      -4.146
  H      -45.293     -25.692      -9.570
  P      -40.839     -28.716      -7.505
  C      -40.910     -30.246      -5.412
  O      -41.047     -30.144      -6.813
  O      -39.741     -28.038      -6.548
  O      -40.352     -28.712      -8.917
  H      -38.854     -28.204      -6.917
  H      -41.091     -31.283      -5.118
  H      -41.641     -29.609      -4.907
  H      -39.899     -29.967      -5.105
  H      -46.707     -28.756     -13.015
  H      -45.335     -29.049     -11.975
  H      -45.085     -28.574     -13.638

 3  4  5  6  7  8  9  10  11  12  13  23  27  28  29  30  32 0
 6-311+G(2d,p)
 ****
 34  35 0
 6-311+G(2d,p)
 ****
 1  2  14  15  16  17  18  19  20  21  22  24  25  26 0
 3-21G
 ****
 31  33  36  37  38  39  40  41  42  43  44  45  46 0
 3-21G
 ****


