%nproc=1
%NoSave
%Mem=1900MB
#P OB98/GEN NMR

erre ene a

0 1
  C     -175.717      12.736      66.774
  O     -176.841      12.236      66.082
  P     -178.212      13.045      65.936
  C     -179.391      10.979      64.886
  O     -179.421      11.984      65.894
  C     -180.461       9.895      65.087
  O     -180.320       9.321      66.404
  C     -181.860      10.517      65.033
  O     -182.489      10.747      63.788
  C     -182.687       9.719      66.033
  O     -183.475       8.705      65.408
  C     -181.631       9.090      66.947
  N     -184.466       9.904      71.071
  C     -184.732       9.105      69.975
  N     -185.991       8.619      69.892
  N     -183.854       8.834      69.046
  C     -182.670       9.470      69.220
  C     -182.285      10.272      70.269
  C     -183.251      10.530      71.311
  O     -183.081      11.299      72.254
  N     -181.037      10.804      70.072
  C     -180.679      10.358      68.885
  N     -181.655       9.579      68.312
  O     -178.223      14.181      64.964
  O     -178.366      13.675      67.414
  H     -182.873       8.004      65.100
  H     -178.790      14.550      67.318
  H     -185.209      10.141      71.717
  H     -179.748      10.598      68.385
  H     -181.761       8.001      66.994
  H     -183.389      10.373      66.564
  H     -186.732       8.925      70.509
  H     -181.775      11.520      65.476
  H     -186.272       8.175      69.023
  H     -180.320       9.067      64.386
  H     -178.388      10.539      64.892
  H     -179.532      11.443      63.906
  P     -183.694      11.761      63.506
  C     -184.652      10.378      61.579
  O     -184.904      10.940      62.856
  O     -183.176      12.662      62.285
  O     -184.072      12.628      64.664
  H     -183.663      13.507      62.269
  H     -185.605      10.117      61.110
  H     -184.052       9.469      61.693
  H     -184.123      11.086      60.937
  H     -174.925      12.017      66.735
  H     -175.980      12.921      67.794
  H     -175.394      13.648      66.317

 3  4  5  6  7  8  9  10  11  12  23  26  30  31 0
 6-311+G(2d,p)
 ****
 33  35  36  37  38 0
 6-311+G(2d,p)
 ****
 1  2  13  14  15  16  17  18  19  20  21  22  24  25 0
 3-21G
 ****
 27  28  29  32  34  39  40  41  42  43  44  45  46  47  48  49 0
 3-21G
 ****


