%nproc=1
%NoSave
%Mem=1900MB
#P OB98/GEN NMR

erre ene a

0 1
  C     -376.593     116.623     297.531
  O     -377.954     117.050     297.601
  P     -378.753     116.866     298.977
  C     -380.666     115.369     298.104
  O     -380.306     116.644     298.627
  C     -381.775     115.507     297.060
  O     -381.270     116.024     295.806
  C     -382.439     114.187     296.712
  O     -383.303     113.756     297.749
  C     -383.121     114.527     295.400
  O     -384.380     115.188     295.629
  C     -382.120     115.515     294.754
  N     -381.336     114.922     293.680
  C     -381.965     114.849     292.435
  O     -383.128     115.235     292.300
  N     -381.260     114.319     291.373
  C     -380.054     113.904     291.547
  N     -379.402     113.392     290.467
  C     -379.355     113.951     292.850
  C     -380.051     114.459     293.865
  O     -378.478     117.882     300.028
  O     -378.298     115.400     299.454
  H     -384.959     114.521     296.048
  H     -378.316     115.365     300.431
  H     -378.336     113.597     292.943
  H     -379.624     114.534     294.860
  H     -382.648     116.386     294.347
  H     -383.334     113.636     294.797
  H     -381.664     113.416     296.538
  H     -382.525     116.203     297.450
  H     -379.899     113.362     289.587
  H     -381.000     114.716     298.917
  H     -378.438     113.093     290.490
  H     -379.773     114.902     297.672
  P     -383.067     112.293     298.361
  C     -385.594     112.007     298.869
  O     -384.272     111.984     299.372
  O     -381.815     112.509     299.343
  O     -382.785     111.230     297.355
  H     -381.260     111.703     299.355
  H     -386.254     111.481     299.570
  H     -385.658     111.511     297.896
  H     -385.936     113.043     298.778
  H     -376.209     116.815     296.551
  H     -376.537     115.574     297.737
  H     -376.013     117.159     298.253

 3  4  5  6  7  8  9  10  11  12  13  23  27  28  29  30  32 0
 6-311+G(2d,p)
 ****
 34  35 0
 6-311+G(2d,p)
 ****
 1  2  14  15  16  17  18  19  20  21  22  24  25  26 0
 3-21G
 ****
 31  33  36  37  38  39  40  41  42  43  44  45  46 0
 3-21G
 ****


