%nproc=1
%NoSave
%Mem=1900MB
#P OB98/GEN NMR

erre ene a

0 1
  C      353.891     970.741     797.528
  O      353.585     971.550     798.649
  H      353.196     970.981     796.723
  H      353.791     969.686     797.784
  H      354.917     970.945     797.182
  P      354.519     971.367     799.941
  C      355.267     972.973     801.848
  O      354.796     972.855     800.519
  C      356.678     973.560     801.832
  O      357.585     972.636     801.201
  C      356.808     974.846     801.032
  O      356.329     975.981     801.755
  C      358.301     974.880     800.771
  O      359.016     975.441     801.878
  C      358.651     973.409     800.591
  N      361.762     971.217     797.184
  C      361.853     971.363     798.513
  N      360.968     971.952     799.364
  C      359.897     972.391     798.684
  C      359.666     972.304     797.324
  C      360.648     971.685     796.537
  N      360.580     971.562     795.184
  N      358.453     972.906     797.007
  C      357.964     973.327     798.147
  N      358.796     973.042     799.191
  O      355.927     970.937     799.321
  O      354.023     970.383     800.949
  H      358.800     976.392     801.895
  H      356.033     969.963     799.388
  H      362.757     970.970     798.976
  H      357.021     973.859     798.265
  H      359.583     973.132     801.093
  H      358.520     975.496     799.884
  H      356.272     974.760     800.065
  H      357.013     973.722     802.872
  H      355.293     971.987     802.317
  H      354.581     973.622     802.413
  H      361.355     971.161     794.691
  H      359.814     971.998     794.698
  P      355.780     977.219     800.905
  C      354.040     979.133     801.321
  O      354.809     978.054     801.854
  O      354.778     976.549     799.839
  O      356.829     978.037     800.232
  H      354.819     977.042     798.985
  H      353.453     979.571     802.100
  H      353.394     978.765     800.552
  H      354.697     979.871     800.912

 6  7  8  9  10  11  12  13  14  15  25  28  32  33  34  35 0
 6-311+G(2d,p)
 ****
 36  37  40 0
 6-311+G(2d,p)
 ****
 1  2  3  4  5  16  17  18  19  20  21  22  23  24 0
 3-21G
 ****
 26  27  29  30  31  38  39 41  42  43  44  45  46  47  48 0
 3-21G
 ****


