%nproc=1
%NoSave
%Mem=1900MB
#P OB98/GEN NMR

erre ene a

0 1
  C     1229.216    -335.097     774.757
  O     1229.800    -336.376     774.871
  H     1228.186    -335.150     775.116
  H     1229.212    -334.781     773.709
  H     1229.759    -334.371     775.362
  P     1231.380    -336.490     774.624
  C     1231.793    -338.677     775.975
  O     1231.986    -337.269     775.894
  C     1230.570    -338.984     776.844
  O     1229.383    -338.453     776.184
  C     1230.334    -340.487     777.074
  O     1229.821    -340.666     778.391
  C     1229.245    -340.809     776.071
  O     1228.477    -341.962     776.403
  C     1228.421    -339.518     776.101
  N     1227.569    -339.360     774.919
  C     1226.188    -339.444     775.115
  O     1225.644    -339.548     776.197
  N     1225.437    -339.391     773.970
  C     1225.916    -339.303     772.694
  O     1225.177    -339.288     771.711
  C     1227.366    -339.221     772.558
  C     1228.116    -339.262     773.654
  O     1231.887    -334.987     774.837
  O     1231.790    -337.052     773.300
  H     1231.864    -334.504     773.996
  H     1229.101    -342.709     776.526
  H     1224.434    -339.454     774.099
  H     1227.779    -339.155     771.552
  H     1229.207    -339.234     773.581
  H     1227.808    -339.479     777.005
  H     1229.673    -340.976     775.071
  H     1231.224    -341.110     776.926
  H     1230.665    -338.464     777.797
  H     1232.678    -339.139     776.437
  H     1231.664    -339.083     774.967
  P     1230.858    -340.497     779.609
  C     1229.470    -338.976     781.233
  O     1230.518    -339.078     780.277
  O     1232.233    -340.251     778.822
  O     1230.861    -341.670     780.533
  H     1232.105    -339.741     778.001
  H     1229.389    -337.963     781.567
  H     1229.686    -339.610     782.068
  H     1228.547    -339.279     780.784

 6  7  8  9  10  11  12  13  14  15  16  27  31  32  33  34  35 0
 6-311+G(2d,p)
 ****
 36  37 0
 6-311+G(2d,p)
 ****
 1  2  3  4  5  17  18  19  20  21  22  23  24  25 0
 3-21G
 ****
 26  28  29  30  38  39  40  41  42  43  44  45 0
 3-21G
 ****


