%nproc=1
%NoSave
%Mem=1900MB
#P OB98/GEN NMR

erre ene a

0 1
  C      355.723     394.319    1461.758
  O      355.557     395.754    1461.686
  P      356.519     396.582    1460.677
  C      354.693     397.544    1459.106
  O      355.679     397.826    1460.106
  C      353.429     398.388    1459.337
  O      352.683     397.846    1460.480
  C      353.688     399.881    1459.691
  O      353.802     400.820    1458.636
  C      352.403     400.218    1460.458
  O      351.363     400.557    1459.514
  C      352.042     398.922    1461.189
  N      351.266     401.012    1465.796
  C      350.702     401.226    1464.607
  N      350.944     400.622    1463.416
  C      351.934     399.713    1463.554
  C      352.619     399.378    1464.720
  C      352.255     400.082    1465.885
  N      352.855     399.870    1467.111
  N      353.549     398.389    1464.477
  C      353.444     398.146    1463.186
  N      352.466     398.915    1462.588
  O      357.247     395.755    1459.654
  O      357.540     397.292    1461.690
  H      351.655     401.405    1459.117
  H      358.436     397.309    1461.268
  H      349.920     401.984    1464.595
  H      354.051     397.429    1462.625
  H      350.968     398.721    1461.182
  H      352.548     401.082    1461.122
  H      354.567     399.964    1460.364
  H      352.785     398.334    1458.436
  H      354.436     396.483    1459.141
  H      352.581     400.432    1467.888
  H      353.628     399.207    1467.181
  H      355.142     397.730    1458.137
  P      354.231     402.363    1458.908
  C      356.439     402.283    1457.455
  O      355.109     402.771    1457.615
  O      354.883     402.588    1460.232
  O      352.845     403.116    1458.681
  H      352.523     403.127    1457.753
  H      356.777     402.512    1456.446
  H      356.469     401.207    1457.596
  H      357.111     402.793    1458.182
  H      355.024     393.914    1462.460
  H      356.719     394.091    1462.074
  H      355.548     393.891    1460.793

 3  4  5  6  7  8  9  10  11  12  22  25  29  30  31  32 0
 6-311+G(2d,p)
 ****
 33  36  37 0
 6-311+G(2d,p)
 ****
 1  2  13  14  15  16  17  18  19  20  21  23  24  26 0
 3-21G
 ****
 27  28  34  35  38  39  40  41  42  43  44  45  46  47  48 0
 3-21G
 ****


