%nproc=1
%NoSave
%Mem=1900MB
#P OB98/GEN NMR

erre ene a

0 1
  C      154.510     130.833    -580.202
  O      154.773     131.924    -581.059
  H      154.636     129.896    -580.752
  H      155.224     130.852    -579.375
  H      153.494     130.893    -579.796
  P      153.670     132.268    -582.172
  C      152.971     134.460    -580.969
  O      152.567     133.183    -581.447
  C      151.794     135.184    -580.318
  O      151.356     134.412    -579.161
  C      152.116     136.609    -579.835
  O      150.981     137.439    -580.092
  C      152.276     136.440    -578.335
  O      152.013     137.637    -577.615
  C      151.276     135.325    -578.051
  N      150.590     135.556    -573.020
  C      149.958     136.169    -574.045
  N      150.171     136.008    -575.365
  C      151.094     135.056    -575.587
  C      151.815     134.343    -574.646
  C      151.542     134.638    -573.301
  N      152.225     134.070    -572.249
  N      152.714     133.497    -575.271
  C      152.555     133.720    -576.562
  N      151.591     134.656    -576.802
  O      152.924     130.862    -582.361
  O      154.199     132.798    -583.462
  H      151.803     137.411    -576.688
  H      153.392     130.333    -583.035
  H      149.197     136.889    -573.769
  H      153.131     133.257    -577.352
  H      150.241     135.690    -577.982
  H      153.300     136.117    -578.109
  H      153.008     137.042    -580.303
  H      150.958     135.197    -581.028
  H      153.334     135.057    -581.811
  H      152.037     134.420    -571.322
  H      153.011     133.467    -572.444
  H      153.785     134.333    -580.249
  P      150.938     138.214    -581.494
  C      149.032     136.823    -582.597
  O      150.403     137.206    -582.618
  O      152.485     138.395    -581.864
  O      150.229     139.531    -581.438
  H      152.622     139.226    -582.355
  H      148.837     136.152    -583.407
  H      148.417     137.693    -582.698
  H      148.812     136.336    -581.670

 6  7  8  9  10  11  12  13  14  15  25  28  32  33  34  35 0
 6-311+G(2d,p)
 ****
 36  39  40 0
 6-311+G(2d,p)
 ****
 1  2  3  4  5  16  17  18  19  20  21  22  23  24 0
 3-21G
 ****
 26  27  29  30  31  37  38  41  42  43  44  45  46  47 0
 3-21G
 ****
 48 0
 3-21G
 ****


