%nproc=1
%NoSave
%Mem=1900MB
#P OB98/GEN NMR

erre ene a

0 1
  C     -178.811    -125.325    -310.537
  O     -179.841    -124.333    -310.548
  P     -180.480    -123.919    -309.133
  C     -178.404    -122.739    -308.052
  O     -179.677    -122.611    -308.664
  C     -178.172    -121.583    -307.078
  O     -177.042    -121.860    -306.216
  C     -177.853    -120.257    -307.753
  O     -179.011    -119.677    -308.330
  C     -177.256    -119.478    -306.585
  O     -178.302    -118.947    -305.757
  C     -176.490    -120.580    -305.826
  N     -175.048    -120.530    -306.045
  C     -174.273    -120.237    -304.929
  O     -174.753    -120.012    -303.818
  N     -172.921    -120.200    -305.133
  C     -172.286    -120.388    -306.326
  O     -171.067    -120.350    -306.444
  C     -173.159    -120.642    -307.480
  C     -174.482    -120.703    -307.294
  O     -179.923    -125.085    -308.190
  O     -181.963    -123.792    -309.176
  H     -179.026    -125.378    -308.436
  H     -178.739    -118.247    -306.282
  H     -172.339    -120.004    -304.331
  H     -172.690    -120.772    -308.448
  H     -175.141    -120.887    -308.134
  H     -176.669    -120.491    -304.746
  H     -176.639    -118.638    -306.916
  H     -177.089    -120.409    -308.526
  H     -179.067    -121.484    -306.451
  H     -177.618    -122.727    -308.816
  H     -178.352    -123.703    -307.540
  P     -178.973    -119.410    -309.913
  C     -180.023    -121.519    -311.043
  O     -180.209    -120.218    -310.542
  O     -177.690    -120.266    -310.343
  O     -178.902    -117.961    -310.275
  H     -177.663    -121.140    -309.927
  H     -180.997    -122.020    -311.094
  H     -179.359    -122.108    -310.403
  H     -179.605    -121.466    -312.053
  H     -178.477    -125.504    -311.538
  H     -179.195    -126.233    -310.121
  H     -177.990    -124.980    -309.944

 3  4  5  6  7  8  9  10  11  12  13  24  28  29  30  31  32 0
 6-311+G(2d,p)
 ****
 33  34 0
 6-311+G(2d,p)
 ****
 1  2  14  15  16  17  18  19  20  21  22  23  25  26  27 0
 3-21G
 ****
 35  36  37  38  39  40  41  42  43  44  45 0
 3-21G
 ****


