%nproc=1
%NoSave
%Mem=1900MB
#P OB98/GEN NMR

erre ene a

0 1
  C      699.249     255.076     299.802
  O      698.427     255.805     298.871
  P      697.657     257.094     299.451
  C      695.480     256.529     298.154
  O      696.496     257.496     298.411
  C      695.459     256.111     296.674
  O      694.466     256.895     295.964
  C      696.798     256.299     295.941
  O      696.959     255.212     295.009
  C      696.558     257.567     295.122
  O      697.429     257.646     293.990
  C      695.077     257.403     294.770
  N      693.731     260.275     290.838
  C      694.233     258.984     290.848
  N      694.440     258.391     289.651
  N      694.536     258.341     291.961
  C      694.241     259.047     293.078
  C      693.736     260.314     293.189
  C      693.449     261.030     291.954
  O      693.046     262.192     291.865
  N      693.587     260.691     294.499
  C      694.020     259.645     295.194
  N      694.441     258.630     294.376
  O      698.743     258.263     299.300
  O      697.229     256.945     300.878
  H      698.325     257.869     294.329
  H      698.902     258.687     300.158
  H      693.534     260.720     289.948
  H      694.084     259.590     296.275
  H      694.938     256.656     293.974
  H      696.742     258.439     295.751
  H      694.184     258.796     288.765
  H      697.677     256.367     296.590
  H      694.775     257.429     289.648
  H      695.148     255.058     296.631
  H      694.505     256.949     298.418
  H      695.658     255.655     298.797
  P      697.894     253.989     295.499
  C      700.056     255.019     294.479
  O      699.131     253.954     294.478
  O      697.042     252.705     295.119
  O      698.248     254.047     296.951
  H      697.264     251.963     295.713
  H      699.926     255.700     295.309
  H      699.928     255.590     293.543
  H      701.070     254.618     294.505
  H      699.705     254.247     299.302
  H      698.643     254.717     300.608
  H      700.010     255.722     300.188

 3  4  5  6  7  8  9  10  11  12  23  26  30  31  33  0
 6-311+G(2d,p)
 ****
 35  36  37  38 0
 6-311+G(2d,p)
 ****
 1  2  13  14  15  16  17  18  19  20  21  22  24  25  27  28  29 0
 3-21G
 ****
 32  34  39  40  41  42  43  44  45  46  47  48  49 0
 3-21G
 ****


