%nproc=1
%NoSave
%Mem=1900MB
#P OB98/GEN NMR

erre ene a

0 1
  C      206.457    -155.044     178.836
  O      206.579    -156.384     179.275
  H      207.290    -154.468     179.245
  H      205.516    -154.612     179.190
  H      206.502    -155.008     177.745
  P      205.422    -157.399     178.810
  C      207.168    -158.886     177.630
  O      206.007    -158.077     177.473
  C      207.995    -158.885     176.339
  O      208.675    -157.611     176.231
  C      209.059    -159.990     176.300
  O      209.154    -160.504     174.967
  C      210.344    -159.252     176.649
  O      211.498    -159.902     176.133
  C      210.078    -157.864     176.062
  N      214.633    -155.564     176.184
  C      214.093    -156.447     175.320
  N      212.853    -157.003     175.346
  C      212.145    -156.514     176.395
  C      212.566    -155.608     177.344
  C      213.885    -155.134     177.226
  N      214.455    -154.243     178.115
  N      211.561    -155.387     178.274
  C      210.559    -156.142     177.873
  N      210.868    -156.847     176.737
  O      204.052    -156.813     178.684
  O      205.567    -158.577     179.886
  H      211.461    -160.846     176.394
  H      206.505    -158.807     180.033
  H      214.732    -156.758     174.499
  H      209.590    -156.210     178.361
  H      210.323    -157.807     174.989
  H      210.443    -159.196     177.740
  H      208.850    -160.803     176.994
  H      207.310    -158.961     175.481
  H      206.875    -159.913     177.878
  H      215.404    -153.944     177.943
  H      213.896    -153.900     178.886
  H      207.754    -158.482     178.458
  P      208.090    -161.594     174.505
  C      207.025    -160.061     172.721
  O      206.805    -160.848     173.888
  O      207.782    -162.682     175.485
  O      208.782    -162.216     173.184
  H      208.592    -163.179     173.159
  H      206.102    -159.620     172.409
  H      207.405    -160.683     171.938
  H      207.733    -159.289     172.939

 6  7  8  9  10  11  12  13  14  15  25  28  32  33  34  35 0
 6-311+G(2d,p)
 ****
 36  39  40 0
 6-311+G(2d,p)
 ****
 1  2  3  4  5  16  17  18  19  20  21  22  23  24 0
 3-21G
 ****
 26  27  29  30  31  37  38  41  42  43  44  45  46  47 0
 3-21G
 ****
 48 0
 3-21G
 ****


