%nproc=1
%NoSave
%Mem=1900MB
#P OB98/GEN NMR

erre ene a

0 1
  C     -140.582      29.756      -6.432
  O     -140.436      31.016      -7.065
  P     -138.961      31.463      -7.511
  C     -139.859      32.023      -9.919
  O     -138.928      31.326      -9.107
  C     -139.543      31.793     -11.400
  O     -139.718      30.399     -11.728
  C     -140.442      32.554     -12.365
  O     -140.083      33.923     -12.455
  C     -140.239      31.757     -13.648
  O     -139.011      32.146     -14.287
  C     -140.125      30.316     -13.111
  N     -141.360      29.548     -13.254
  C     -141.258      28.340     -13.937
  O     -140.201      27.917     -14.401
  N     -142.424      27.637     -14.083
  C     -143.663      28.045     -13.682
  O     -144.682      27.396     -13.878
  C     -143.713      29.345     -12.996
  C     -142.579      30.025     -12.816
  O     -138.105      30.221      -6.977
  O     -138.560      32.790      -6.965
  H     -138.635      29.406      -6.940
  H     -138.953      31.626     -15.113
  H     -142.372      26.747     -14.555
  H     -144.681      29.705     -12.671
  H     -142.599      30.988     -12.322
  H     -139.323      29.779     -13.633
  H     -141.047      31.908     -14.371
  H     -141.488      32.470     -12.044
  H     -138.490      32.053     -11.570
  H     -139.798      33.091      -9.694
  H     -140.869      31.672      -9.684
  P     -141.090      34.977     -11.773
  C     -139.349      36.160     -10.224
  O     -140.474      35.317     -10.335
  O     -142.348      34.042     -11.455
  O     -141.397      36.156     -12.637
  H     -142.094      33.173     -11.102
  H     -139.303      36.552      -9.205
  H     -139.408      37.000     -10.922
  H     -138.440      35.586     -10.422
  H     -141.612      29.594      -6.193
  H     -140.001      29.739      -5.534
  H     -140.243      28.984      -7.091

 3  4  5  6  7  8  9  10  11  12  13  24  28  29  30  31  32 0
 6-311+G(2d,p)
 ****
 33  34 0
 6-311+G(2d,p)
 ****
 1  2  14  15  16  17  18  19  20  21  22  23  25  26  27 0
 3-21G
 ****
 35  36  37  38  39  40  41  42  43  44  45 0
 3-21G
 ****


