%nproc=1
%NoSave
%Mem=1900MB
#P OB98/GEN NMR

erre ene a

0 1
  C     -114.745      48.056    -340.607
  O     -113.779      49.043    -340.899
  H     -115.080      48.194    -339.574
  H     -114.309      47.058    -340.700
  H     -115.609      48.147    -341.269
  P     -113.241      49.173    -342.405
  C     -110.843      48.287    -342.738
  O     -112.225      47.956    -342.645
  C     -110.264      48.503    -341.341
  O     -110.616      47.391    -340.483
  C     -108.745      48.570    -341.309
  O     -108.270      49.814    -341.790
  C     -108.477      48.304    -339.837
  O     -108.640      49.497    -339.057
  C     -109.575      47.272    -339.493
  N     -109.045      45.910    -339.439
  C     -108.197      45.619    -338.378
  O     -107.889      46.436    -337.509
  N     -107.648      44.363    -338.381
  C     -107.761      43.445    -339.386
  O     -107.062      42.440    -339.467
  C     -108.722      43.784    -340.452
  C     -109.304      44.986    -340.435
  O     -112.725      50.519    -342.792
  O     -114.510      48.757    -343.293
  H     -114.928      49.563    -343.652
  H     -108.772      49.198    -338.136
  H     -106.994      44.158    -337.633
  H     -108.891      43.052    -341.234
  H     -109.988      45.269    -341.226
  H     -110.029      47.507    -338.519
  H     -107.462      47.935    -339.673
  H     -108.321      47.749    -341.900
  H     -110.710      49.413    -340.921
  H     -110.741      49.208    -343.321
  H     -110.317      47.476    -343.256
  P     -106.726      49.992    -342.192
  C     -105.581      51.539    -340.488
  O     -105.880      50.192    -340.845
  O     -106.462      51.002    -343.258
  O     -106.282      48.530    -342.675
  H     -105.841      48.603    -343.541
  H     -105.017      51.550    -339.579
  H     -106.493      52.082    -340.349
  H     -105.009      51.996    -341.268

 6  7  8  9  10  11  12  13  14  15  16  27  31  32  33  34  35 0
 6-311+G(2d,p)
 ****
 36  37 0
 6-311+G(2d,p)
 ****
 1  2  3  4  5  17  18  19  20  21  22  23  24  25 0
 3-21G
 ****
 26  28  29  30  38  39  40  41  42  43  44  45 0
 3-21G
 ****


