%nproc=1
%NoSave
%Mem=1900MB
#P OB98/GEN NMR

erre ene a

0 1
  C       51.435    -111.898    -146.614
  O       51.432    -112.228    -147.987
  H       51.573    -110.818    -146.511
  H       52.258    -112.407    -146.107
  H       50.483    -112.179    -146.154
  P       51.245    -113.779    -148.360
  C       53.638    -113.983    -147.376
  O       52.355    -114.579    -147.512
  C       54.707    -114.864    -148.026
  O       54.857    -116.080    -147.238
  C       54.374    -115.283    -149.467
  O       55.583    -115.291    -150.235
  C       53.884    -116.712    -149.304
  O       54.015    -117.467    -150.504
  C       54.773    -117.187    -148.158
  N       55.190    -122.199    -147.916
  C       55.915    -121.272    -148.642
  N       56.902    -121.751    -149.429
  N       55.689    -119.985    -148.600
  C       54.689    -119.643    -147.752
  C       53.890    -120.462    -146.989
  C       54.137    -121.887    -147.059
  O       53.513    -122.760    -146.460
  N       52.962    -119.731    -146.287
  C       53.199    -118.476    -146.626
  N       54.241    -118.373    -147.509
  O       51.794    -113.870    -149.862
  O       49.857    -114.308    -148.234
  H       53.555    -118.324    -150.372
  H       51.335    -114.576    -150.357
  H       55.399    -123.179    -147.991
  H       52.653    -117.615    -146.265
  H       55.789    -117.436    -148.492
  H       52.828    -116.718    -149.008
  H       57.157    -122.725    -149.486
  H       53.635    -114.640    -149.950
  H       57.457    -121.087    -149.960
  H       55.669    -114.339    -147.981
  H       53.864    -113.861    -146.311
  H       53.630    -112.998    -147.856
  P       55.911    -113.992    -151.117
  C       55.539    -115.236    -153.366
  O       55.179    -114.138    -152.540
  O       57.461    -114.183    -151.474
  O       55.676    -112.702    -150.404
  H       57.996    -113.542    -150.971
  H       54.973    -115.201    -154.273
  H       55.333    -116.152    -152.852
  H       56.583    -115.183    -153.595

 6  7  8  9  10  11  12  13  14  15  26  29  33  34 0
 6-311+G(2d,p)
 ****
 36  38  39  40  41 0
 6-311+G(2d,p)
 ****
 1  2  3  4  5  16  17  18  19  20  21  22  23  24  25 0
 3-21G
 ****
 27  28  30  31  32  35  37  42  43  44  45  46  47 0
 3-21G
 ****
 48  49 0
 3-21G
 ****


