%nproc=1
%NoSave
%Mem=1900MB
#P OB98/GEN NMR

erre ene a

0 1
  C     -329.890     -20.753     -33.561
  O     -328.723     -20.579     -32.785
  H     -330.320     -21.731     -33.332
  H     -329.641     -20.718     -34.624
  H     -330.624     -19.978     -33.324
  P     -327.937     -19.187     -32.943
  C     -326.157     -20.199     -34.552
  O     -326.421     -19.606     -33.286
  C     -324.921     -21.101     -34.470
  O     -323.904     -20.441     -33.676
  C     -325.205     -22.460     -33.830
  O     -324.537     -23.482     -34.572
  C     -324.620     -22.343     -32.435
  O     -324.245     -23.611     -31.897
  C     -323.470     -21.355     -32.651
  N     -323.123     -20.645     -31.422
  C     -321.802     -20.762     -30.979
  O     -320.996     -21.447     -31.609
  N     -321.437     -20.146     -29.808
  C     -322.331     -19.519     -29.107
  N     -321.913     -18.949     -27.944
  C     -323.744     -19.411     -29.510
  C     -324.069     -19.987     -30.668
  O     -327.850     -18.653     -31.441
  O     -328.546     -18.217     -33.900
  H     -324.180     -23.518     -30.920
  H     -327.579     -17.703     -31.411
  H     -324.456     -18.893     -28.883
  H     -325.086     -19.960     -31.041
  H     -322.576     -21.875     -33.018
  H     -325.369     -21.904     -31.762
  H     -326.268     -22.697     -33.786
  H     -324.506     -21.214     -35.477
  H     -320.937     -19.052     -27.695
  H     -325.985     -19.406     -35.287
  H     -322.526     -18.464     -27.306
  H     -327.023     -20.793     -34.858
  P     -325.382     -24.147     -35.768
  C     -325.330     -26.630     -35.023
  O     -324.861     -25.657     -35.942
  O     -324.838     -23.398     -37.072
  O     -326.858     -24.009     -35.602
  H     -325.453     -22.689     -37.338
  H     -324.902     -27.581     -35.261
  H     -326.396     -26.694     -35.084
  H     -325.046     -26.349     -34.030

 6  7  8  9  10  11  12  13  14  15  16  26  30  31  32  33  35 0
 6-311+G(2d,p)
 ****
 37  38 0
 6-311+G(2d,p)
 ****
 1  2  3  4  5  17  18  19  20  21  22  23  24  25 0
 3-21G
 ****
 27  28  29  34  36  39  40  41  42  43  44  45  46 0
 3-21G
 ****


