%nproc=1
%NoSave
%Mem=1900MB
#P OB98/GEN NMR

erre ene a

0 1
  C     -894.150    -462.308    -889.661
  O     -892.770    -462.448    -889.901
  H     -894.330    -462.404    -888.571
  H     -894.720    -463.098    -890.171
  H     -894.500    -461.327    -889.991
  P     -892.320    -462.452    -891.451
  C     -893.080    -463.924    -893.471
  O     -893.080    -463.732    -892.061
  C     -893.080    -465.418    -893.791
  O     -894.290    -466.043    -893.291
  C     -893.040    -465.760    -895.281
  O     -891.750    -465.618    -895.851
  C     -893.490    -467.198    -895.231
  O     -892.420    -468.028    -894.751
  C     -894.640    -467.122    -894.191
  N     -895.950    -466.872    -894.811
  C     -896.500    -467.934    -895.551
  O     -895.910    -468.992    -895.651
  N     -897.720    -467.744    -896.171
  C     -898.330    -466.602    -896.051
  N     -899.510    -466.466    -896.691
  C     -897.790    -465.468    -895.281
  C     -896.610    -465.682    -894.691
  O     -890.790    -462.952    -891.391
  O     -892.530    -461.179    -892.201
  H     -892.740    -468.956    -894.811
  H     -890.470    -463.123    -892.301
  H     -898.330    -464.539    -895.221
  H     -896.160    -464.878    -894.101
  H     -894.700    -468.043    -893.611
  H     -893.780    -467.588    -896.211
  H     -893.780    -465.168    -895.831
  H     -892.230    -465.883    -893.251
  H     -899.840    -467.243    -897.261
  H     -892.170    -463.473    -893.871
  H     -900.000    -465.574    -896.781
  H     -893.960    -463.463    -893.911
  P     -891.680    -465.322    -897.421
  C     -892.480    -466.535    -899.581
  O     -892.390    -466.553    -898.161
  O     -890.120    -465.534    -897.761
  O     -892.160    -463.963    -897.831
  H     -889.840    -464.916    -898.461
  H     -892.977    -467.421    -899.918
  H     -891.496    -466.497    -900.000
  H     -893.034    -465.674    -899.892

 6  7  8  9  10  11  12  13  14  15  16  26  30  31  32  33  35 0
 6-311+G(2d,p)
 ****
 37  38 0
 6-311+G(2d,p)
 ****
 1  2  3  4  5  17  18  19  20  21  22  23  24  25 0
 3-21G
 ****
 27  28  29  34  36  39  40  41  42  43  44  45  46 0
 3-21G
 ****


