%nproc=1
%NoSave
%Mem=1900MB
#P OB98/GEN NMR

erre ene a

0 1
  C     -631.080     -93.859    -378.852
  O     -631.616     -94.964    -378.153
  H     -630.959     -93.026    -378.147
  H     -631.766     -93.545    -379.644
  H     -630.103     -94.101    -379.280
  P     -631.745     -96.364    -378.917
  C     -630.375     -97.661    -377.152
  O     -631.636     -97.513    -377.805
  C     -630.574     -97.727    -375.642
  O     -630.916     -96.420    -375.129
  C     -631.719     -98.643    -375.215
  O     -631.356    -100.003    -375.311
  C     -631.967     -98.143    -373.802
  O     -631.037     -98.719    -372.879
  C     -631.719     -96.622    -373.947
  N     -632.971     -95.874    -374.022
  C     -633.034     -94.871    -374.985
  O     -632.108     -94.598    -375.745
  N     -634.190     -94.125    -374.992
  C     -635.194     -94.205    -374.070
  O     -636.080     -93.365    -373.977
  C     -635.108     -95.322    -373.125
  C     -634.010     -96.093    -373.131
  O     -630.844     -96.540    -380.100
  O     -633.286     -96.426    -379.344
  H     -633.366     -96.205    -380.292
  H     -630.160     -98.379    -373.131
  H     -634.221     -93.364    -375.663
  H     -635.916     -95.462    -372.425
  H     -633.906     -96.900    -372.422
  H     -631.137     -96.248    -373.093
  H     -632.974     -98.390    -373.460
  H     -632.604     -98.438    -375.825
  H     -629.629     -98.043    -375.182
  H     -629.752     -96.796    -377.402
  H     -629.881     -98.565    -377.524
  P     -632.108    -100.965    -376.353
  C     -630.087    -102.236    -377.303
  O     -631.264    -102.319    -376.501
  O     -632.490    -100.324    -377.648
  O     -633.413    -101.447    -375.563
  H     -634.204    -101.313    -376.129
  H     -629.607    -103.192    -377.331
  H     -629.419    -101.513    -376.883
  H     -630.353    -101.941    -378.297

 6  7  8  9  10  11  12  13  14  15  16  27  31  32  33  34  35 0
 6-311+G(2d,p)
 ****
 36  37 0
 6-311+G(2d,p)
 ****
 1  2  3  4  5  17  18  19  20  21  22  23  24  25 0
 3-21G
 ****
 26  28  29  30  38  39  40  41  42  43  44  45 0
 3-21G
 ****


