%nproc=1
%NoSave
%Mem=1900MB
#P OB98/GEN NMR

erre ene a

0 1
  C     -855.361    -156.938    -217.175
  O     -854.896    -156.561    -215.894
  H     -855.174    -158.006    -217.314
  H     -854.824    -156.381    -217.952
  H     -856.433    -156.751    -217.259
  P     -855.096    -155.021    -215.481
  C     -855.360    -155.721    -212.991
  O     -854.678    -154.909    -213.936
  C     -854.603    -155.702    -211.659
  O     -853.363    -156.434    -211.789
  C     -854.210    -154.310    -211.198
  O     -855.284    -153.603    -210.608
  C     -853.093    -154.631    -210.212
  O     -853.615    -154.978    -208.928
  C     -852.426    -155.850    -210.862
  N     -847.751    -153.880    -210.266
  C     -848.725    -154.182    -209.373
  N     -849.939    -154.717    -209.611
  C     -850.092    -154.973    -210.921
  C     -849.194    -154.723    -211.949
  C     -847.968    -154.147    -211.578
  N     -846.980    -153.811    -212.479
  N     -849.732    -155.087    -213.167
  C     -850.936    -155.547    -212.890
  N     -851.193    -155.507    -211.545
  O     -856.684    -154.853    -215.455
  O     -854.443    -154.034    -216.392
  H     -853.727    -154.138    -208.436
  H     -856.985    -154.434    -216.282
  H     -848.495    -153.957    -208.344
  H     -851.644    -155.916    -213.618
  H     -852.175    -156.629    -210.123
  H     -852.421    -153.785    -210.085
  H     -853.781    -153.736    -212.031
  H     -855.222    -156.210    -210.904
  H     -855.412    -156.750    -213.365
  H     -856.376    -155.337    -212.862
  H     -846.161    -153.348    -212.154
  H     -847.182    -153.911    -213.474
  P     -855.168    -152.009    -210.522
  C     -857.653    -151.437    -211.099
  O     -856.615    -151.444    -210.123
  O     -854.991    -151.545    -212.046
  O     -854.056    -151.511    -209.660
  H     -854.394    -150.778    -212.088
  H     -858.544    -151.031    -210.669
  H     -857.840    -152.438    -211.428
  H     -857.354    -150.837    -211.933

 6  7  8  9  10  11  12  13  14  15  25  28  32  33  34  35 0
 6-311+G(2d,p)
 ****
 36  37  40 0
 6-311+G(2d,p)
 ****
 1  2  3  4  5  16  17  18  19  20  21  22  23  24 0
 3-21G
 ****
 26  27  29  30  31  38  39 41  42  43  44  45  46  47  48 0
 3-21G
 ****


