%nproc=1
%NoSave
%Mem=1900MB
#P OB98/GEN NMR

erre ene a

0 1
  C      -48.822     -78.246     229.267
  O      -49.760     -79.060     229.938
  H      -48.585     -78.705     228.302
  H      -47.902     -78.162     229.856
  H      -49.243     -77.253     229.094
  P      -50.155     -78.619     231.433
  C      -48.697     -79.685     233.322
  O      -48.772     -78.756     232.247
  C      -48.373     -81.077     232.789
  O      -47.211     -81.040     231.926
  C      -48.040     -82.107     233.871
  O      -49.186     -82.605     234.539
  C      -47.375     -83.170     233.014
  O      -48.373     -83.890     232.271
  C      -46.499     -82.297     232.089
  N      -45.152     -82.067     232.613
  C      -44.384     -83.209     232.900
  O      -44.836     -84.335     232.706
  N      -43.120     -83.044     233.422
  C      -42.658     -81.845     233.628
  N      -41.405     -81.749     234.158
  C      -43.429     -80.621     233.337
  C      -44.651     -80.803     232.839
  O      -51.007     -79.860     231.974
  O      -50.834     -77.294     231.566
  H      -49.021     -84.223     232.919
  H      -51.177     -79.756     232.942
  H      -43.006     -79.643     233.545
  H      -45.274     -79.949     232.601
  H      -46.415     -82.751     231.089
  H      -46.820     -83.908     233.595
  H      -47.307     -81.714     234.585
  H      -49.225     -81.405     232.175
  H      -40.929     -82.600     234.405
  H      -49.664     -79.689     233.834
  H      -41.022     -80.870     234.498
  H      -47.918     -79.376     234.027
  P      -48.968     -83.217     236.008
  C      -49.446     -85.762     236.311
  O      -48.566     -84.758     235.823
  O      -50.455     -83.296     236.598
  O      -48.052     -82.419     236.895
  H      -50.457     -83.124     237.561
  H      -49.032     -86.728     236.109
  H      -50.395     -85.672     235.825
  H      -49.573     -85.642     237.367

 6  7  8  9  10  11  12  13  14  15  16  26  30  31  32  33  35 0
 6-311+G(2d,p)
 ****
 37  38 0
 6-311+G(2d,p)
 ****
 1  2  3  4  5  17  18  19  20  21  22  23  24  25 0
 3-21G
 ****
 27  28  29  34  36  39  40  41  42  43  44  45  46 0
 3-21G
 ****


