%nproc=1
%NoSave
%Mem=1900MB
#P OB98/GEN NMR

erre ene a

0 1
  C     -174.738    -106.124    -895.660
  O     -174.307    -107.272    -894.950
  H     -175.558    -105.640    -895.120
  H     -173.902    -105.421    -895.730
  H     -175.053    -106.399    -896.670
  P     -175.387    -108.444    -894.740
  C     -175.253    -109.321    -897.190
  O     -175.008    -109.581    -895.810
  C     -174.000    -109.626    -898.000
  O     -172.940    -108.719    -897.640
  C     -173.437    -111.029    -897.780
  O     -174.126    -112.007    -898.540
  C     -172.016    -110.837    -898.280
  O     -172.006    -110.838    -899.730
  C     -171.677    -109.441    -897.750
  N     -167.341    -108.454    -895.210
  C     -167.664    -108.359    -896.520
  N     -168.840    -108.638    -897.120
  C     -169.739    -109.071    -896.210
  C     -169.551    -109.228    -894.850
  C     -168.281    -108.889    -894.350
  N     -167.941    -109.006    -893.023
  N     -170.692    -109.725    -894.250
  C     -171.565    -109.833    -895.240
  N     -171.029    -109.462    -896.440
  O     -176.736    -107.819    -895.340
  O     -175.549    -108.930    -893.349
  H     -171.143    -110.468    -900.000
  H     -177.511    -108.297    -894.980
  H     -166.872    -108.003    -897.180
  H     -172.589    -110.176    -895.130
  H     -171.031    -108.877    -898.430
  H     -171.336    -111.633    -897.950
  H     -173.412    -111.287    -896.710
  H     -174.234    -109.464    -899.060
  H     -175.518    -108.265    -897.310
  H     -166.966    -108.918    -892.801
  H     -168.585    -109.473    -892.397
  H     -176.091    -109.937    -897.530
  P     -173.584    -113.517    -898.470
  C     -175.326    -114.495    -896.800
  O     -174.859    -114.428    -898.140
  O     -172.757    -113.542    -897.090
  O     -172.757    -113.940    -899.630
  H     -172.058    -114.218    -897.110
  H     -176.178    -115.141    -896.751
  H     -175.602    -113.516    -896.469
  H     -174.550    -114.879    -896.171

 6  7  8  9  10  11  12  13  14  15  25  28  32  33  34  35 0
 6-311+G(2d,p)
 ****
 36  39  40 0
 6-311+G(2d,p)
 ****
 1  2  3  4  5  16  17  18  19  20  21  22  23  24 0
 3-21G
 ****
 26  27  29  30  31  37  38  41  42  43  44  45  46  47 0
 3-21G
 ****
 48 0
 3-21G
 ****


