%nproc=1
%NoSave
%Mem=1900MB
#P OB98/GEN NMR

erre ene a

0 1
  C     -274.404     201.338    -128.310
  O     -275.767     201.757    -128.180
  P     -276.862     200.584    -128.117
  C     -278.627     202.344    -128.832
  O     -278.308     201.265    -127.961
  C     -280.110     202.329    -129.225
  O     -280.387     201.274    -130.187
  C     -281.060     202.117    -128.039
  O     -282.243     202.884    -128.308
  C     -281.389     200.640    -128.136
  O     -282.576     200.321    -127.408
  C     -281.484     200.495    -129.652
  N     -283.230     195.817    -128.884
  C     -283.440     196.972    -128.164
  N     -284.282     196.884    -127.105
  N     -282.879     198.123    -128.448
  C     -282.096     198.068    -129.555
  C     -281.821     196.990    -130.360
  C     -282.427     195.720    -130.017
  O     -282.276     194.668    -130.624
  N     -281.003     197.344    -131.414
  C     -280.735     198.621    -131.187
  N     -281.417     199.117    -130.112
  O     -276.599     199.914    -126.688
  O     -276.741     199.592    -129.225
  H     -283.320     200.794    -127.838
  H     -276.084     199.095    -126.789
  H     -283.677     194.954    -128.612
  H     -280.080     199.228    -131.786
  H     -282.425     200.904    -130.054
  H     -280.562     200.041    -127.736
  H     -284.785     196.043    -126.859
  H     -280.641     202.398    -127.067
  H     -284.486     197.728    -126.583
  H     -280.339     203.287    -129.717
  H     -278.017     202.279    -129.740
  H     -278.353     203.286    -128.351
  P     -282.568     204.122    -127.348
  C     -285.153     203.963    -127.300
  O     -284.018     204.675    -127.750
  O     -281.573     205.263    -127.879
  O     -282.353     203.854    -125.895
  H     -281.225     205.769    -127.119
  H     -286.001     204.655    -127.238
  H     -284.990     203.513    -126.326
  H     -285.395     203.180    -128.028
  H     -273.768     202.198    -128.342
  H     -274.288     200.775    -129.213
  H     -274.137     200.728    -127.473

 3  4  5  6  7  8  9  10  11  12  23  26  30  31 0
 6-311+G(2d,p)
 ****
 33  35  36  37  38 0
 6-311+G(2d,p)
 ****
 1  2  13  14  15  16  17  18  19  20  21  22  24  25 0
 3-21G
 ****
 27  28  29  32  34  39  40  41  42  43  44  45  46  47  48  49 0
 3-21G
 ****


