%nproc=1
%NoSave
%Mem=1900MB
#P OB98/GEN NMR

erre ene a

0 1
  C       19.693     104.668     128.425
  O       18.280     104.448     128.344
  P       17.580     104.845     126.957
  C       16.761     106.909     128.299
  O       16.483     105.976     127.263
  C       15.501     107.714     128.656
  O       15.057     108.549     127.566
  C       14.303     106.834     129.008
  O       14.427     106.373     130.351
  C       13.141     107.797     128.818
  O       12.936     108.618     129.983
  C       13.615     108.653     127.628
  N        9.573     109.068     124.586
  C        9.739     109.465     125.901
  N        8.685     110.071     126.482
  N       10.839     109.271     126.583
  C       11.811     108.646     125.877
  C       11.776     108.238     124.563
  C       10.558     108.447     123.817
  O       10.373     108.141     122.645
  N       12.980     107.698     124.173
  C       13.690     107.668     125.289
  N       13.050     108.295     126.334
  O       16.718     103.544     126.593
  O       18.559     105.170     125.868
  H       12.343     109.355     129.749
  H       17.104     103.090     125.825
  H        8.706     109.234     124.106
  H       14.675     107.241     125.384
  H       13.375     109.719     127.782
  H       12.202     107.266     128.643
  H        7.804     110.251     126.015
  H       14.225     105.995     128.304
  H        8.782     110.381     127.441
  H       15.753     108.358     129.503
  H       17.554     107.591     127.987
  H       17.131     106.368     129.168
  P       15.163     104.975     130.597
  C       12.941     103.630     130.651
  O       14.126     103.999     131.334
  O       16.237     105.323     131.729
  O       15.827     104.396     129.382
  H       17.102     104.913     131.506
  H       12.634     102.641     130.997
  H       13.089     103.600     129.568
  H       12.150     104.354     130.889
  H       20.046     104.368     129.390
  H       19.901     105.707     128.276
  H       20.187     104.093     127.670

 3  4  5  6  7  8  9  10  11  12  23  26  30  31 0
 6-311+G(2d,p)
 ****
 33  35  36  37  38 0
 6-311+G(2d,p)
 ****
 1  2  13  14  15  16  17  18  19  20  21  22  24  25 0
 3-21G
 ****
 27  28  29  32  34  39  40  41  42  43  44  45  46  47  48  49 0
 3-21G
 ****


