%nproc=1
%NoSave
%Mem=1900MB
#P OB98/GEN NMR

erre ene a

0 1
  C     -180.171     171.325     -57.000
  O     -179.054     170.916     -57.761
  H     -180.735     170.436     -56.689
  H     -180.827     171.969     -57.594
  H     -179.844     171.862     -56.103
  P     -178.159     172.092     -58.396
  C     -178.441     173.510     -60.569
  O     -178.997     172.547     -59.690
  C     -179.152     173.448     -61.921
  O     -178.819     172.222     -62.614
  C     -180.675     173.460     -61.824
  O     -181.210     174.753     -61.605
  C     -181.037     172.934     -63.203
  O     -180.861     173.973     -64.183
  C     -179.979     171.819     -63.381
  N     -180.455     170.498     -62.944
  C     -180.704     169.547     -63.937
  O     -180.535     169.828     -65.127
  N     -181.174     168.303     -63.569
  C     -181.367     168.027     -62.314
  N     -181.844     166.795     -62.013
  C     -181.103     168.994     -61.229
  C     -180.655     170.184     -61.607
  O     -176.921     171.308     -59.051
  O     -177.768     173.184     -57.460
  H     -181.047     173.571     -65.056
  H     -176.366     171.933     -59.579
  H     -181.282     168.725     -60.194
  H     -180.440     170.958     -60.863
  H     -179.674     171.732     -64.431
  H     -182.075     172.594     -63.276
  H     -181.037     172.748     -61.074
  H     -178.779     174.280     -62.538
  H     -182.073     166.168     -62.772
  H     -177.378     173.288     -60.699
  H     -182.196     166.554     -61.092
  H     -178.548     174.513     -60.150
  P     -182.705     174.853     -61.038
  C     -185.038     174.769     -62.200
  O     -183.681     174.330     -62.200
  O     -182.989     176.433     -61.035
  O     -182.917     174.244     -59.685
  H     -183.498     176.693     -60.240
  H     -185.553     174.335     -63.032
  H     -185.068     175.836     -62.279
  H     -185.511     174.465     -61.290

 6  7  8  9  10  11  12  13  14  15  16  26  30  31  32  33  35 0
 6-311+G(2d,p)
 ****
 37  38 0
 6-311+G(2d,p)
 ****
 1  2  3  4  5  17  18  19  20  21  22  23  24  25 0
 3-21G
 ****
 27  28  29  34  36  39  40  41  42  43  44  45  46 0
 3-21G
 ****


