%nproc=1
%NoSave
%Mem=1900MB
#P OB98/GEN NMR

erre ene a

0 1
  C     -504.099      43.060     360.839
  O     -504.231      42.060     359.844
  H     -504.808      42.847     361.645
  H     -504.329      44.044     360.424
  H     -503.088      43.059     361.254
  P     -503.289      42.158     358.547
  C     -504.679      40.348     357.327
  O     -504.197      41.687     357.309
  C     -505.994      40.247     356.564
  O     -506.992      41.085     357.173
  C     -505.894      40.685     355.097
  O     -505.361      39.633     354.311
  C     -507.355      40.979     354.805
  O     -508.073      39.743     354.608
  C     -507.805      41.663     356.109
  N     -509.293      46.050     354.054
  C     -509.644      44.752     353.729
  N     -510.479      44.603     352.674
  N     -509.198      43.697     354.361
  C     -508.321      43.996     355.348
  C     -507.884      45.244     355.748
  C     -508.421      46.407     355.067
  O     -508.151      47.573     355.340
  N     -506.937      45.147     356.745
  C     -506.831      43.853     356.958
  N     -507.635      43.107     356.130
  O     -501.973      41.447     358.629
  O     -503.118      43.732     358.303
  H     -507.610      39.259     353.898
  H     -502.318      44.070     358.752
  H     -509.660      46.821     353.510
  H     -506.190      43.396     357.705
  H     -508.852      41.451     356.341
  H     -507.498      41.582     353.906
  H     -510.612      45.341     351.993
  H     -505.319      41.611     354.991
  H     -510.704      43.662     352.386
  H     -506.349      39.212     356.638
  H     -504.817      40.064     358.377
  H     -503.940      39.674     356.872
  P     -504.388      39.942     353.073
  C     -505.522      38.052     351.719
  O     -505.186      39.429     351.772
  O     -502.999      39.398     353.215
  O     -504.438      41.533     352.897
  H     -503.771      42.008     353.450
  H     -506.046      37.847     350.809
  H     -506.146      37.805     352.553
  H     -504.628      37.465     351.756

 6  7  8  9  10  11  12  13  14  15  26  29  33  34 0
 6-311+G(2d,p)
 ****
 36  38  39  40  41 0
 6-311+G(2d,p)
 ****
 1  2  3  4  5  16  17  18  19  20  21  22  23  24  25 0
 3-21G
 ****
 27  28  30  31  32  35  37  42  43  44  45  46  47 0
 3-21G
 ****
 48  49 0
 3-21G
 ****


