%nproc=1
%NoSave
%Mem=1900MB
#P OB98/GEN NMR

erre ene a

0 1
  C      139.689     319.089     209.210
  O      139.658     318.200     208.107
  P      138.456     318.240     207.055
  C      137.826     315.818     207.850
  O      137.407     317.103     207.443
  C      136.945     315.359     209.024
  O      136.960     316.349     210.073
  C      135.499     315.152     208.590
  O      135.263     313.793     208.256
  C      134.718     315.617     209.803
  O      134.659     314.579     210.798
  C      135.595     316.790     210.305
  N      135.429     318.110     209.662
  C      135.944     319.245     210.280
  O      136.574     319.222     211.339
  N      135.691     320.437     209.646
  C      135.028     320.581     208.459
  O      134.602     321.650     208.033
  C      134.755     319.338     207.732
  C      134.945     318.181     208.364
  O      139.130     317.678     205.715
  O      137.829     319.580     206.847
  H      134.217     314.959     211.583
  H      139.383     318.409     205.125
  H      135.942     321.275     210.159
  H      134.361     319.407     206.731
  H      134.707     317.246     207.859
  H      135.474     316.942     211.384
  H      133.685     315.851     209.547
  H      135.255     315.809     207.745
  H      137.359     314.425     209.431
  H      138.878     315.844     208.151
  H      137.742     315.115     207.019
  P      134.659     313.422     206.821
  C      132.297     313.414     207.825
  O      133.152     313.977     206.847
  O      134.809     311.999     206.408
  O      135.428     314.420     205.831
  H      136.179     313.952     205.409
  H      131.369     313.992     207.855
  H      132.766     313.446     208.812
  H      132.058     312.380     207.558
  H      140.568     318.905     209.792
  H      138.821     318.935     209.816
  H      139.702     320.098     208.855

 3  4  5  6  7  8  9  10  11  12  13  23  28  29  30  31  32 0
 6-311+G(2d,p)
 ****
 33  34 0
 6-311+G(2d,p)
 ****
 1  2  14  15  16  17  18  19  20  21  22  24  25  26  27 0
 3-21G
 ****
 35  36  37  38  39  40  41  42  43  44  45 0
 3-21G
 ****


