%nproc=1
%NoSave
%Mem=1900MB
#P OB98/GEN NMR

erre ene a

0 1
  C     -266.813      63.760      77.668
  O     -266.465      62.450      77.258
  P     -266.212      61.337      78.385
  C     -268.741      61.044      79.033
  O     -267.438      61.445      79.415
  C     -269.589      60.741      80.272
  O     -270.966      60.525      79.861
  C     -269.146      59.499      81.057
  O     -269.381      59.766      82.446
  C     -270.094      58.427      80.553
  O     -270.216      57.336      81.452
  C     -271.378      59.242      80.372
  N     -272.345      58.616      79.470
  C     -273.316      57.792      80.027
  O     -273.396      57.541      81.228
  N     -274.195      57.226      79.140
  C     -274.159      57.346      77.781
  O     -274.962      56.803      77.034
  C     -273.081      58.192      77.247
  C     -272.246      58.785      78.100
  O     -264.981      61.975      79.179
  O     -265.972      59.972      77.838
  H     -265.024      62.944      79.233
  H     -270.695      56.620      80.995
  H     -274.933      56.654      79.526
  H     -273.009      58.300      76.171
  H     -271.444      59.411      77.730
  H     -271.850      59.422      81.347
  H     -269.729      58.037      79.596
  H     -268.092      59.257      80.897
  H     -269.581      61.626      80.921
  H     -268.680      60.146      78.416
  H     -269.201      61.835      78.431
  P     -268.366      59.132      83.522
  C     -267.241      61.423      84.108
  O     -267.100      60.106      83.619
  O     -267.798      57.891      82.679
  O     -268.995      58.715      84.810
  H     -267.516      58.140      81.782
  H     -266.258      61.792      84.408
  H     -267.906      61.458      84.974
  H     -267.633      62.067      83.316
  H     -266.947      64.380      76.806
  H     -266.032      64.162      78.278
  H     -267.723      63.728      78.229

 3  4  5  6  7  8  9  10  11  12  13  24  28  29  30  31  32 0
 6-311+G(2d,p)
 ****
 33  34 0
 6-311+G(2d,p)
 ****
 1  2  14  15  16  17  18  19  20  21  22  23  25  26  27 0
 3-21G
 ****
 35  36  37  38  39  40  41  42  43  44  45 0
 3-21G
 ****


