%nproc=1
%NoSave
%Mem=1900MB
#P OB98/GEN NMR

erre ene a

0 1
  C     -438.042     -43.321    -276.320
  O     -439.361     -42.986    -276.750
  P     -440.038     -41.548    -276.586
  C     -442.548     -42.146    -276.121
  O     -441.571     -41.663    -277.030
  C     -443.762     -42.806    -276.807
  O     -444.360     -41.865    -277.733
  C     -443.295     -44.001    -277.648
  O     -443.094     -45.270    -277.042
  C     -444.246     -44.024    -278.837
  O     -445.366     -44.905    -278.621
  C     -444.723     -42.578    -278.933
  N     -445.138     -41.664    -283.961
  C     -445.873     -42.523    -283.164
  N     -446.805     -43.282    -283.793
  N     -445.682     -42.649    -281.873
  C     -444.668     -41.900    -281.391
  C     -443.850     -41.025    -282.081
  C     -444.099     -40.859    -283.490
  O     -443.488     -40.096    -284.245
  N     -442.917     -40.461    -281.263
  C     -443.142     -41.018    -280.080
  N     -444.203     -41.898    -280.111
  O     -439.255     -40.404    -277.137
  O     -440.118     -41.361    -274.981
  H     -445.022     -45.747    -278.294
  H     -440.010     -40.407    -274.811
  H     -445.325     -41.594    -284.942
  H     -442.567     -40.808    -279.185
  H     -445.826     -42.519    -278.999
  H     -443.742     -44.389    -279.731
  H     -446.909     -43.315    -284.790
  H     -442.310     -43.748    -278.076
  H     -447.190     -44.060    -283.254
  H     -444.541     -43.063    -276.080
  H     -442.881     -41.279    -275.516
  H     -442.096     -42.846    -275.413
  P     -441.700     -45.895    -276.587
  C     -442.689     -48.247    -276.786
  O     -441.988     -47.342    -275.963
  O     -441.284     -45.020    -275.291
  O     -440.612     -45.840    -277.609
  H     -440.347     -45.146    -275.081
  H     -443.084     -49.055    -276.157
  H     -442.013     -48.665    -277.520
  H     -443.525     -47.754    -277.289
  H     -437.841     -44.346    -276.551
  H     -437.962     -43.171    -275.264
  H     -437.333     -42.697    -276.823

 3  4  5  6  7  8  9  10  11  12  23  26  30  31 0
 6-311+G(2d,p)
 ****
 33  35  36  37  38 0
 6-311+G(2d,p)
 ****
 1  2  13  14  15  16  17  18  19  20  21  22  24  25 0
 3-21G
 ****
 27  28  29  32  34  39  40  41  42  43  44  45  46  47  48  49 0
 3-21G
 ****


