%nproc=1
%NoSave
%Mem=1900MB
#P OB98/GEN NMR

erre ene a

0 1
  C     -208.199     274.410     792.105
  O     -207.890     273.480     791.086
  H     -207.267     274.798     792.523
  H     -208.768     273.921     792.901
  H     -208.773     275.246     791.692
  P     -209.133     272.775     790.356
  C     -208.915     270.258     790.947
  O     -209.520     271.505     791.262
  C     -209.765     269.105     791.488
  O     -210.060     269.304     792.883
  C     -211.100     268.925     790.778
  O     -210.954     268.178     789.579
  C     -211.905     268.176     791.842
  O     -211.585     266.770     791.838
  C     -211.416     268.848     793.131
  N     -215.442     270.134     795.898
  C     -214.835     268.902     795.723
  N     -215.428     267.852     796.331
  N     -213.762     268.719     795.006
  C     -213.303     269.856     794.429
  C     -213.805     271.135     794.538
  C     -214.980     271.335     795.358
  O     -215.525     272.402     795.606
  N     -213.057     272.027     793.810
  C     -212.124     271.286     793.242
  N     -212.244     269.955     793.568
  O     -208.480     272.109     789.054
  O     -210.265     273.681     790.005
  H     -210.620     266.662     791.870
  H     -209.142     272.091     788.336
  H     -216.259     270.213     796.477
  H     -211.349     271.658     792.581
  H     -211.370     268.137     793.971
  H     -212.975     268.258     791.669
  H     -216.400     267.874     796.605
  H     -211.573     269.903     790.588
  H     -215.004     266.946     796.190
  H     -209.159     268.187     791.403
  H     -207.922     270.216     791.402
  H     -208.816     270.174     789.859
  P     -211.180     268.946     788.190
  C     -213.763     268.861     787.897
  O     -212.634     269.624     788.283
  O     -211.393     267.763     787.138
  O     -210.067     269.863     787.793
  H     -211.268     268.097     786.227
  H     -214.649     269.449     788.016
  H     -213.830     267.987     788.511
  H     -213.663     268.570     786.872

 6  7  8  9  10  11  12  13  14  15  26  29  33  34 0
 6-311+G(2d,p)
 ****
 36  38  39  40  41 0
 6-311+G(2d,p)
 ****
 1  2  3  4  5  16  17  18  19  20  21  22  23  24  25 0
 3-21G
 ****
 27  28  30  31  32  35  37  42  43  44  45  46  47 0
 3-21G
 ****
 48  49 0
 3-21G
 ****


