%nproc=1
%NoSave
%Mem=1900MB
#P OB98/GEN NMR

erre ene a

0 1
  C     -299.123    -107.043    -353.226
  O     -299.878    -108.237    -353.179
  H     -298.555    -106.988    -354.159
  H     -299.809    -106.194    -353.177
  H     -298.441    -106.998    -352.370
  P     -299.058    -109.606    -353.346
  C     -299.847    -110.758    -351.162
  O     -298.772    -110.148    -351.861
  C     -299.640    -110.624    -349.658
  O     -299.599    -109.230    -349.283
  C     -300.745    -111.238    -348.805
  O     -300.616    -112.646    -348.702
  C     -300.484    -110.549    -347.473
  O     -299.406    -111.214    -346.787
  C     -300.045    -109.141    -347.905
  N     -302.865    -106.236    -344.744
  C     -301.885    -107.139    -344.507
  N     -301.192    -107.881    -345.390
  C     -301.578    -107.612    -346.648
  C     -302.562    -106.719    -347.046
  C     -303.227    -106.015    -346.030
  N     -304.237    -105.110    -346.283
  N     -302.674    -106.695    -348.420
  C     -301.775    -107.561    -348.850
  N     -301.093    -108.144    -347.815
  O     -297.614    -109.118    -353.842
  O     -299.654    -110.597    -354.288
  H     -299.753    -112.073    -346.487
  H     -297.258    -109.773    -354.474
  H     -301.624    -107.284    -343.461
  H     -301.586    -107.789    -349.891
  H     -299.189    -108.792    -347.316
  H     -301.352    -110.558    -346.806
  H     -301.740    -110.950    -349.173
  H     -298.666    -111.064    -349.410
  H     -299.895    -111.821    -351.424
  H     -304.536    -104.501    -345.539
  H     -304.496    -104.945    -347.248
  H     -300.784    -110.276    -351.465
  P     -301.853    -113.545    -349.195
  C     -300.508    -115.602    -350.030
  O     -301.275    -114.456    -350.386
  O     -302.785    -112.488    -349.961
  O     -302.592    -114.256    -348.114
  H     -303.709    -112.795    -349.959
  H     -300.191    -116.109    -350.917
  H     -301.106    -116.262    -349.437
  H     -299.650    -115.297    -349.468

 6  7  8  9  10  11  12  13  14  15  25  28  32  33  34  35 0
 6-311+G(2d,p)
 ****
 36  39  40 0
 6-311+G(2d,p)
 ****
 1  2  3  4  5  16  17  18  19  20  21  22  23  24 0
 3-21G
 ****
 26  27  29  30  31  37  38  41  42  43  44  45  46  47  48 0
 3-21G
 ****


