%nproc=1
%NoSave
%Mem=1900MB
#P OB98/GEN NMR

erre ene a

0 1
  C      -29.091      76.243     -33.265
  O      -28.252      75.237     -33.790
  H      -29.368      76.924     -34.073
  H      -28.554      76.807     -32.497
  H      -30.002      75.817     -32.839
  P      -27.991      73.920     -32.921
  C      -25.434      74.141     -32.658
  O      -26.697      74.200     -32.015
  C      -24.292      74.356     -31.656
  O      -24.368      75.697     -31.117
  C      -24.432      73.393     -30.474
  O      -23.172      73.074     -29.890
  C      -25.253      74.198     -29.479
  O      -25.110      73.739     -28.138
  C      -24.707      75.604     -29.721
  N      -25.882      79.356     -26.483
  C      -24.876      78.415     -26.401
  N      -24.093      78.468     -25.301
  N      -24.667      77.497     -27.308
  C      -25.573      77.518     -28.315
  C      -26.627      78.384     -28.493
  C      -26.822      79.421     -27.503
  O      -27.709      80.270     -27.515
  N      -27.339      78.082     -29.626
  C      -26.722      77.032     -30.130
  N      -25.635      76.660     -29.377
  O      -27.442      72.861     -33.991
  O      -29.178      73.385     -32.180
  H      -25.360      72.796     -28.123
  H      -27.613      71.952     -33.687
  H      -25.989      80.051     -25.765
  H      -27.016      76.510     -31.032
  H      -23.790      75.769     -29.140
  H      -26.309      74.098     -29.745
  H      -24.324      79.037     -24.502
  H      -24.937      72.469     -30.755
  H      -23.555      77.625     -25.083
  H      -23.324      74.269     -32.160
  H      -25.418      74.930     -33.416
  H      -25.316      73.186     -33.175
  P      -22.385      71.806     -30.474
  C      -21.941      70.557     -28.211
  O      -22.605      70.584     -29.460
  O      -20.848      72.201     -30.287
  O      -22.717      71.495     -31.894
  H      -20.454      72.441     -31.146
  H      -22.214      69.668     -27.681
  H      -22.224      71.415     -27.638
  H      -20.883      70.567     -28.369

 6  7  8  9  10  11  12  13  14  15  26  29  33  34 0
 6-311+G(2d,p)
 ****
 36  38  39  40  41 0
 6-311+G(2d,p)
 ****
 1  2  3  4  5  16  17  18  19  20  21  22  23  24  25 0
 3-21G
 ****
 27  28  30  31  32  35  37  42  43  44  45  46  47 0
 3-21G
 ****
 48  49 0
 3-21G
 ****


