%nproc=1
%NoSave
%Mem=1900MB
#P OB98/GEN NMR

erre ene a

0 1
  C       -1.842     -84.915    -128.595
  O       -1.633     -85.831    -129.654
  H       -2.750     -85.202    -128.055
  H       -1.973     -83.906    -128.996
  H       -0.997     -84.933    -127.902
  P       -0.231     -85.725    -130.423
  C       -1.333     -84.570    -132.503
  O       -0.353     -84.515    -131.477
  C       -0.669     -84.859    -133.847
  O       -1.614     -84.717    -134.927
  C        0.444     -83.889    -134.215
  O        1.617     -84.093    -133.452
  C        0.620     -84.210    -135.692
  O        1.484     -85.335    -135.893
  C       -0.827     -84.545    -136.131
  N       -1.374     -83.524    -137.008
  C       -0.924     -83.570    -138.335
  O       -0.132     -84.447    -138.688
  N       -1.349     -82.604    -139.207
  C       -2.134     -81.656    -138.789
  N       -2.494     -80.709    -139.699
  C       -2.631     -81.572    -137.400
  C       -2.216     -82.528    -136.570
  O       -0.250     -87.025    -131.354
  O        0.962     -85.627    -129.533
  H        2.248     -85.207    -135.291
  H       -1.071     -87.134    -131.859
  H       -3.292     -80.771    -137.105
  H       -2.531     -82.543    -135.534
  H       -0.855     -85.506    -136.664
  H        1.061     -83.371    -136.238
  H        0.086     -82.854    -134.130
  H       -0.306     -85.895    -133.833
  H       -2.083     -80.776    -140.625
  H       -1.894     -83.632    -132.551
  H       -3.033     -79.889    -139.469
  H       -2.040     -85.366    -132.247
  P        2.474     -82.859    -132.903
  C        4.031     -83.018    -134.952
  O        3.176     -82.177    -134.181
  O        3.411     -83.177    -131.787
  O        1.355     -81.776    -132.526
  H        0.786     -81.496    -133.266
  H        4.438     -82.460    -135.769
  H        3.470     -83.847    -135.330
  H        4.827     -83.379    -134.335

 6  7  8  9  10  11  12  13  14  15  16  26  30  31  32  33  35 0
 6-311+G(2d,p)
 ****
 37  38 0
 6-311+G(2d,p)
 ****
 1  2  3  4  5  17  18  19  20  21  22  23  24  25 0
 3-21G
 ****
 27  28  29  34  36  39  40  41  42  43  44  45  46 0
 3-21G
 ****


