%nproc=1
%NoSave
%Mem=1900MB
#P OB98/GEN NMR

erre ene a

0 1
  C     -154.187    -386.878     825.103
  O     -154.317    -386.383     823.786
  H     -153.140    -386.792     825.407
  H     -154.481    -387.932     825.151
  H     -154.800    -386.289     825.792
  P     -155.741    -386.505     823.062
  C     -156.465    -384.107     823.713
  O     -156.732    -385.501     823.824
  C     -157.107    -383.337     824.872
  O     -156.667    -383.924     826.129
  C     -156.727    -381.848     824.910
  O     -157.835    -381.137     825.496
  C     -155.539    -381.865     825.854
  O     -155.218    -380.571     826.307
  C     -156.027    -382.877     826.894
  N     -154.948    -383.388     827.725
  C     -154.818    -382.810     828.989
  O     -155.583    -381.911     829.345
  N     -153.804    -383.243     829.812
  C     -152.962    -384.125     829.382
  N     -151.975    -384.501     830.241
  C     -153.026    -384.718     828.030
  C     -154.039    -384.312     827.266
  O     -156.267    -387.890     822.892
  O     -155.520    -385.790     821.645
  H     -155.898    -380.245     826.938
  H     -155.452    -386.464     820.946
  H     -152.288    -385.438     827.714
  H     -154.174    -384.691     826.256
  H     -156.790    -382.433     827.545
  H     -154.651    -382.248     825.345
  H     -156.501    -381.439     823.923
  H     -158.196    -383.466     824.827
  H     -151.962    -384.055     831.148
  H     -156.884    -383.768     822.762
  H     -151.249    -385.163     830.004
  H     -155.383    -383.930     823.707
  P     -158.989    -380.452     824.625
  C     -160.873    -382.017     825.427
  O     -160.129    -381.530     824.313
  O     -158.485    -379.730     823.410
  O     -159.707    -379.424     825.621
  H     -160.044    -378.664     825.111
  H     -161.599    -382.726     825.088
  H     -161.370    -381.201     825.909
  H     -160.209    -382.489     826.120

 6  7  8  9  10  11  12  13  14  15  16  26  30  31  32  33  35 0
 6-311+G(2d,p)
 ****
 37  38 0
 6-311+G(2d,p)
 ****
 1  2  3  4  5  17  18  19  20  21  22  23  24  25 0
 3-21G
 ****
 27  28  29  34  36  39  40  41  42  43  44  45  46 0
 3-21G
 ****


