%nproc=1
%NoSave
%Mem=1900MB
#P OB98/GEN NMR

erre ene a

0 1
  C      -76.484    -822.753     232.051
  O      -76.073    -822.039     230.902
  H      -75.990    -822.316     232.926
  H      -76.199    -823.805     231.973
  H      -77.564    -822.668     232.182
  P      -76.663    -822.550     229.500
  C      -78.626    -820.883     229.775
  O      -77.540    -821.318     228.962
  C      -78.771    -819.368     229.713
  O      -77.734    -818.733     230.473
  C      -78.697    -818.794     228.302
  O      -79.942    -818.880     227.650
  C      -78.323    -817.339     228.609
  O      -79.518    -816.614     228.965
  C      -77.400    -817.474     229.833
  N      -73.241    -814.517     229.274
  C      -74.540    -814.219     229.396
  N      -75.606    -815.051     229.480
  C      -75.200    -816.332     229.452
  C      -73.902    -816.803     229.335
  C      -72.882    -815.830     229.255
  N      -71.547    -816.165     229.134
  N      -73.872    -818.180     229.344
  C      -75.129    -818.532     229.520
  N      -75.977    -817.460     229.556
  O      -77.330    -823.883     229.518
  O      -75.356    -822.466     228.572
  H      -79.858    -817.025     229.788
  H      -74.849    -821.658     228.777
  H      -74.770    -813.152     229.414
  H      -75.471    -819.560     229.644
  H      -77.589    -816.678     230.564
  H      -77.879    -816.831     227.750
  H      -77.875    -819.253     227.726
  H      -79.734    -819.101     230.177
  H      -78.468    -821.196     230.818
  H      -70.922    -815.415     228.893
  H      -71.310    -817.126     228.992
  H      -79.535    -821.376     229.406
  P      -80.057    -818.754     226.049
  C      -79.700    -821.254     225.522
  O      -80.631    -820.177     225.570
  O      -78.812    -818.295     225.378
  O      -81.290    -817.773     225.824
  H      -81.281    -817.429     224.909
  H      -80.198    -822.141     225.191
  H      -79.292    -821.417     226.498
  H      -78.911    -821.013     224.841

 6  7  8  9  10  11  12  13  14  15  25  28  32  33  34  35 0
 6-311+G(2d,p)
 ****
 36  39  40 0
 6-311+G(2d,p)
 ****
 1  2  3  4  5  16  17  18  19  20  21  22  23  24 0
 3-21G
 ****
 26  27  29  30  31  37  38  41  42  43  44  45  46  47 0
 3-21G
 ****
 48 0
 3-21G
 ****


