%nproc=1
%NoSave
%Mem=1900MB
#P OB98/GEN NMR

erre ene a

0 1
  C      120.905     122.490    -253.061
  O      121.340     123.233    -251.944
  H      121.760     122.303    -253.715
  H      120.158     123.058    -253.621
  H      120.484     121.531    -252.747
  P      120.278     123.490    -250.769
  C      122.015     122.950    -248.915
  O      121.124     123.908    -249.469
  C      122.120     123.134    -247.402
  O      122.781     124.396    -247.129
  C      120.766     123.148    -246.688
  O      120.900     122.466    -245.438
  C      120.509     124.622    -246.435
  O      119.635     124.846    -245.329
  C      121.933     125.158    -246.247
  N      122.009     126.589    -246.525
  C      121.563     127.450    -245.518
  O      121.126     126.990    -244.461
  N      121.568     128.800    -245.747
  C      121.906     129.251    -246.916
  N      121.862     130.600    -247.093
  C      122.318     128.378    -248.033
  C      122.354     127.071    -247.767
  O      119.759     122.021    -250.411
  O      119.163     124.421    -251.107
  H      118.807     124.343    -245.483
  H      118.829     122.037    -250.113
  H      122.565     128.798    -248.995
  H      122.636     126.353    -248.526
  H      122.280     124.981    -245.221
  H      120.048     125.072    -247.323
  H      119.966     122.684    -247.272
  H      122.765     122.343    -247.000
  H      121.557     131.164    -246.309
  H      123.006     123.088    -249.360
  H      122.059     131.056    -247.970
  H      121.658     121.943    -249.154
  P      120.601     120.891    -245.441
  C      122.058     119.963    -243.501
  O      120.763     120.349    -243.942
  O      121.863     120.278    -246.207
  O      119.318     120.527    -246.111
  H      121.597     119.965    -247.091
  H      122.004     119.626    -242.487
  H      122.721     120.801    -243.563
  H      122.425     119.171    -244.121

 6  7  8  9  10  11  12  13  14  15  16  26  30  31  32  33  35 0
 6-311+G(2d,p)
 ****
 37  38 0
 6-311+G(2d,p)
 ****
 1  2  3  4  5  17  18  19  20  21  22  23  24  25 0
 3-21G
 ****
 27  28  29  34  36  39  40  41  42  43  44  45  46 0
 3-21G
 ****


