%nproc=1
%NoSave
%Mem=1900MB
#P OB98/GEN NMR

erre ene a

0 1
  C     -293.799      88.021    -163.229
  O     -293.113      86.910    -163.813
  P     -293.832      85.478    -163.751
  C     -292.972      84.712    -166.081
  O     -293.022      84.451    -164.690
  C     -292.217      83.608    -166.830
  O     -290.794      83.644    -166.506
  C     -292.706      82.195    -166.509
  O     -292.506      81.376    -167.658
  C     -291.750      81.746    -165.418
  O     -291.744      80.328    -165.265
  C     -290.449      82.364    -165.933
  N     -287.001      79.940    -163.158
  C     -287.866      79.458    -164.122
  N     -287.776      78.144    -164.411
  N     -288.737      80.203    -164.745
  C     -288.690      81.504    -164.374
  C     -287.890      82.103    -163.430
  C     -286.936      81.260    -162.733
  O     -286.155      81.632    -161.859
  N     -288.156      83.447    -163.325
  C     -289.120      83.656    -164.195
  N     -289.458      82.523    -164.884
  O     -295.189      85.724    -164.562
  O     -294.105      84.995    -162.363
  H     -291.196      80.117    -164.477
  H     -295.945      85.733    -163.950
  H     -286.348      79.320    -162.699
  H     -289.617      84.602    -164.368
  H     -289.985      81.751    -166.722
  H     -292.042      82.196    -164.459
  H     -287.084      77.525    -164.004
  H     -293.757      82.136    -166.198
  H     -288.366      77.772    -165.143
  H     -292.303      83.791    -167.910
  H     -292.484      85.673    -166.266
  H     -293.994      84.817    -166.458
  P     -293.776      80.549    -168.196
  C     -293.140      81.097    -170.661
  O     -293.413      80.101    -169.694
  O     -294.894      81.675    -168.405
  O     -294.243      79.454    -167.296
  H     -295.786      81.285    -168.343
  H     -292.062      81.145    -170.822
  H     -293.507      82.084    -170.345
  H     -293.630      80.826    -171.596
  H     -293.207      88.905    -163.342
  H     -293.963      87.832    -162.189
  H     -294.740      88.157    -163.719

 3  4  5  6  7  8  9  10  11  12  23  26  30  31 0
 6-311+G(2d,p)
 ****
 33  35  36  37  38 0
 6-311+G(2d,p)
 ****
 1  2  13  14  15  16  17  18  19  20  21  22  24  25 0
 3-21G
 ****
 27  28  29  32  34  39  40  41  42  43  44  45  46  47  48  49 0
 3-21G
 ****


