%nproc=1
%NoSave
%Mem=1900MB
#P OB98/GEN NMR

erre ene a

0 1
  C     -220.187     140.013     401.810
  O     -219.744     138.730     401.413
  H     -219.618     140.324     402.690
  H     -221.248     139.983     402.069
  H     -220.021     140.737     401.007
  P     -220.444     138.097     400.118
  C     -220.038     135.964     398.684
  O     -219.529     136.857     399.669
  C     -218.880     135.287     397.958
  O     -218.149     136.270     397.185
  C     -217.852     134.658     398.887
  O     -218.279     133.408     399.400
  C     -216.647     134.556     397.967
  O     -216.710     133.383     397.148
  C     -216.775     135.816     397.104
  N     -213.480     139.371     395.509
  C     -214.289     138.527     394.836
  N     -215.151     137.614     395.338
  C     -215.144     137.646     396.681
  C     -214.376     138.455     397.501
  C     -213.509     139.357     396.861
  N     -212.665     140.197     397.545
  N     -214.621     138.170     398.829
  C     -215.526     137.213     398.814
  N     -215.877     136.868     397.536
  O     -220.175     139.198     398.988
  O     -221.898     137.795     400.266
  H     -216.613     132.620     397.754
  H     -220.975     139.744     398.868
  H     -214.232     138.581     393.751
  H     -215.949     136.738     399.690
  H     -216.560     135.620     396.048
  H     -215.722     134.510     398.543
  H     -217.614     135.348     399.710
  H     -219.288     134.541     397.263
  H     -220.639     136.526     397.961
  H     -220.674     135.220     399.174
  H     -212.021     140.770     397.023
  H     -212.596     140.112     398.551
  P     -217.198     132.508     400.169
  C     -217.315     130.601     401.942
  O     -217.987     131.662     401.279
  O     -216.358     133.568     401.026
  O     -216.323     131.694     399.276
  H     -215.419     133.289     401.070
  H     -217.978     130.143     402.646
  H     -216.460     130.987     402.456
  H     -217.001     129.873     401.223

 6  7  8  9  10  11  12  13  14  15  25  28  32  33  34  35 0
 6-311+G(2d,p)
 ****
 36  37  40 0
 6-311+G(2d,p)
 ****
 1  2  3  4  5  16  17  18  19  20  21  22  23  24 0
 3-21G
 ****
 26  27  29  30  31  38  39 41  42  43  44  45  46  47  48 0
 3-21G
 ****


