%nproc=1
%NoSave
%Mem=1900MB
#P OB98/GEN NMR

erre ene a

0 1
  C        7.032      16.195     -15.590
  O        7.503      17.060     -16.600
  H        7.887      15.675     -15.150
  H        6.357      15.454     -16.027
  H        6.512      16.745     -14.802
  P        6.554      18.247     -17.100
  C        5.244      20.189     -16.018
  O        5.961      18.980     -15.800
  C        4.043      20.317     -15.081
  O        3.113      19.236     -15.310
  C        4.444      20.224     -13.608
  O        4.891      21.434     -13.025
  C        3.145      19.753     -12.962
  O        2.287      20.867     -12.664
  C        2.524      18.874     -14.049
  N        0.627      14.571     -12.056
  C        0.109      15.850     -12.013
  N       -1.026      16.011     -11.298
  N        0.669      16.874     -12.601
  C        1.849      16.580     -13.196
  C        2.468      15.354     -13.292
  C        1.811      14.215     -12.684
  O        2.231      13.063     -12.687
  N        3.656      15.442     -13.977
  C        3.790      16.729     -14.227
  N        2.706      17.456     -13.796
  O        5.269      17.483     -17.681
  O        7.153      19.154     -18.131
  H        1.501      20.532     -12.196
  H        4.835      18.031     -18.359
  H        0.138      13.815     -11.608
  H        4.634      17.180     -14.737
  H        1.445      19.049     -14.139
  H        3.329      19.235     -12.016
  H       -1.428      15.279     -10.734
  H        5.200      19.446     -13.467
  H       -1.286      16.960     -11.023
  H        3.514      21.252     -15.298
  H        4.907      20.171     -17.057
  H        5.909      21.049     -15.908
  P        5.758      21.403     -11.680
  C        8.228      20.715     -11.235
  O        7.046      20.497     -11.974
  O        4.868      20.497     -10.706
  O        6.045      22.738     -11.086
  H        4.321      21.060     -10.128
  H        8.982      20.028     -11.558
  H        8.031      20.565     -10.194
  H        8.568      21.717     -11.393

 6  7  8  9  10  11  12  13  14  15  26  29  33  34 0
 6-311+G(2d,p)
 ****
 36  38  39  40  41 0
 6-311+G(2d,p)
 ****
 1  2  3  4  5  16  17  18  19  20  21  22  23  24  25 0
 3-21G
 ****
 27  28  30  31  32  35  37  42  43  44  45  46  47 0
 3-21G
 ****
 48  49 0
 3-21G
 ****


