%nproc=1
%NoSave
%Mem=1900MB
#P OB98/GEN NMR

erre ene a

0 1
  C      106.619      92.500     300.879
  O      106.610      93.618     301.745
  H      107.461      91.856     301.146
  H      106.740      92.833     299.843
  H      105.688      91.934     300.981
  P      105.356      94.611     301.640
  C      104.103      95.816     299.666
  O      105.230      95.061     300.100
  C      104.309      96.278     298.225
  O      105.499      97.082     298.099
  C      104.533      95.141     297.241
  O      103.358      94.394     296.994
  C      105.032      95.919     296.031
  O      103.946      96.531     295.323
  C      105.919      96.993     296.708
  N      107.343      96.701     296.590
  C      107.916      96.956     295.338
  O      107.225      97.413     294.420
  N      109.242      96.663     295.147
  C      109.946      96.182     296.125
  N      111.251      95.903     295.869
  C      109.388      95.922     297.469
  C      108.095      96.196     297.628
  O      105.895      95.937     302.354
  O      104.074      94.082     302.203
  H      104.344      97.006     294.564
  H      106.736      96.262     301.989
  H      110.014      95.528     298.259
  H      107.607      96.034     298.579
  H      105.735      97.982     296.263
  H      105.557      95.277     295.321
  H      105.348      94.496     297.587
  H      103.445      96.897     297.940
  H      111.594      96.075     294.929
  H      103.928      96.674     300.327
  H      111.887      95.494     296.543
  H      103.225      95.167     299.733
  P      103.458      92.863     296.518
  C      104.588      91.652     294.542
  O      104.078      92.891     295.035
  O      102.190      92.078     296.645
  O      104.672      92.282     297.383
  H      105.524      92.733     297.244
  H      104.972      91.792     293.553
  H      103.802      90.926     294.520
  H      105.372      91.309     295.184

 6  7  8  9  10  11  12  13  14  15  16  26  30  31  32  33  35 0
 6-311+G(2d,p)
 ****
 37  38 0
 6-311+G(2d,p)
 ****
 1  2  3  4  5  17  18  19  20  21  22  23  24  25 0
 3-21G
 ****
 27  28  29  34  36  39  40  41  42  43  44  45  46 0
 3-21G
 ****


