%nproc=1
%NoSave
%Mem=1900MB
#P OB98/GEN NMR

erre ene a

0 1
  C      -51.423     -88.100     -31.755
  O      -50.060     -88.500     -31.697
  P      -48.942     -87.350     -31.716
  C      -47.662     -88.526     -33.633
  O      -48.320     -87.343     -33.198
  C      -47.256     -88.412     -35.099
  O      -46.458     -89.574     -35.457
  C      -48.437     -88.345     -36.080
  O      -48.174     -87.342     -37.074
  C      -48.404     -89.699     -36.770
  O      -48.998     -89.653     -38.064
  C      -46.900     -89.972     -36.771
  N      -47.200     -93.725     -40.141
  C      -47.462     -92.379     -40.295
  N      -47.925     -91.989     -41.504
  N      -47.292     -91.492     -39.349
  C      -46.794     -92.020     -38.203
  C      -46.486     -93.333     -37.931
  C      -46.738     -94.313     -38.968
  O      -46.609     -95.530     -38.864
  N      -45.988     -93.476     -36.661
  C      -46.000     -92.254     -36.164
  N      -46.524     -91.341     -37.042
  O      -47.775     -87.973     -30.816
  O      -49.382     -86.026     -31.193
  H      -49.938     -89.428     -37.938
  H      -47.564     -87.364     -30.082
  H      -47.365     -94.369     -40.896
  H      -45.669     -91.989     -35.166
  H      -46.394     -89.334     -37.510
  H      -48.948     -90.429     -36.161
  H      -48.044     -92.614     -42.285
  H      -49.405     -88.148     -35.604
  H      -48.101     -91.003     -41.642
  H      -46.608     -87.533     -35.215
  H      -48.337     -89.381     -33.514
  H      -46.775     -88.686     -33.009
  P      -49.017     -85.981     -36.943
  C      -50.852     -86.963     -38.515
  O      -50.536     -86.379     -37.263
  O      -48.562     -85.139     -38.225
  O      -48.788     -85.249     -35.662
  H      -48.691     -84.184     -38.069
  H      -49.952     -87.232     -39.084
  H      -51.441     -86.254     -39.102
  H      -51.445     -87.866     -38.348
  H      -52.050     -88.967     -31.734
  H      -51.597     -87.555     -32.660
  H      -51.648     -87.477     -30.915

 3  4  5  6  7  8  9  10  11  12  23  26  30  31  33  0
 6-311+G(2d,p)
 ****
 35  36  37  38 0
 6-311+G(2d,p)
 ****
 1  2  13  14  15  16  17  18  19  20  21  22  24  25  27  28  29 0
 3-21G
 ****
 32  34  39  40  41  42  43  44  45  46  47  48  49 0
 3-21G
 ****


