%nproc=1
%NoSave
%Mem=1900MB
#P OB98/GEN NMR

erre ene a

0 1
  C       58.476     278.437    -280.164
  O       59.430     278.902    -279.225
  H       58.787     278.760    -281.161
  H       57.497     278.871    -279.950
  H       58.416     277.345    -280.153
  P       59.290     278.446    -277.694
  C       57.234     279.814    -276.935
  O       57.731     278.535    -277.312
  C       55.799     279.706    -276.404
  O       55.764     278.710    -275.348
  C       55.247     281.015    -275.833
  O       53.862     281.128    -276.156
  C       55.417     280.845    -274.332
  O       54.484     281.628    -273.590
  C       55.221     279.337    -274.167
  N       55.294     275.575    -270.792
  C       54.533     275.727    -271.948
  N       53.660     274.746    -272.234
  N       54.632     276.761    -272.744
  C       55.569     277.658    -272.343
  C       56.379     277.624    -271.228
  C       56.241     276.485    -270.345
  O       56.867     276.305    -269.307
  N       57.179     278.729    -271.161
  C       56.863     279.438    -272.230
  N       55.882     278.836    -272.974
  O       60.206     279.151    -276.746
  O       59.569     276.872    -277.723
  H       53.591     281.387    -273.908
  H       60.453     276.670    -277.372
  H       55.166     274.763    -270.208
  H       57.303     280.388    -272.507
  H       54.160     279.055    -274.089
  H       56.430     281.143    -274.037
  H       53.555     273.902    -271.672
  H       55.790     281.890    -276.207
  H       53.124     274.813    -273.081
  H       55.162     279.330    -277.212
  H       57.253     280.464    -277.816
  H       57.888     280.247    -276.167
  P       53.426     282.004    -277.426
  C       51.935     283.955    -276.670
  O       53.265     283.534    -276.969
  O       52.288     281.461    -278.221
  O       54.775     282.047    -278.309
  H       54.529     282.043    -279.257
  H       51.944     284.984    -276.378
  H       51.544     283.361    -275.870
  H       51.320     283.835    -277.537

 6  7  8  9  10  11  12  13  14  15  26  29  33  34 0
 6-311+G(2d,p)
 ****
 36  38  39  40  41 0
 6-311+G(2d,p)
 ****
 1  2  3  4  5  16  17  18  19  20  21  22  23  24  25 0
 3-21G
 ****
 27  28  30  31  32  35  37  42  43  44  45  46  47 0
 3-21G
 ****
 48  49 0
 3-21G
 ****


