%nproc=1
%NoSave
%Mem=1900MB
#P OB98/GEN NMR

erre ene a

0 1
  C     -687.995     447.410      96.208
  O     -688.654     446.171      96.397
  H     -688.695     448.111      95.745
  H     -687.133     447.283      95.549
  H     -687.672     447.814      97.172
  P     -687.769     444.984      97.015
  C     -689.176     444.727      99.172
  O     -687.925     445.086      98.608
  C     -689.019     444.394     100.655
  O     -688.009     443.378     100.842
  C     -688.617     445.575     101.528
  O     -689.753     446.342     101.896
  C     -687.979     444.867     102.712
  O     -688.983     444.368     103.621
  C     -687.241     443.703     102.033
  N     -682.496     443.960     103.751
  C     -683.676     443.710     104.424
  N     -683.589     443.536     105.762
  N     -684.853     443.661     103.846
  C     -684.798     443.914     102.515
  C     -683.695     444.167     101.736
  C     -682.398     444.167     102.384
  O     -681.309     444.296     101.827
  N     -684.044     444.353     100.421
  C     -685.359     444.243     100.414
  N     -685.863     443.979     101.664
  O     -686.262     445.471      96.758
  O     -688.005     443.634      96.423
  H     -688.547     443.932     104.370
  H     -685.717     444.695      96.530
  H     -681.623     443.953     104.245
  H     -685.988     444.336      99.539
  H     -687.222     442.805     102.660
  H     -687.346     445.541     103.292
  H     -682.789     443.850     106.291
  H     -687.863     446.196     101.029
  H     -684.463     443.432     106.264
  H     -689.970     443.968     100.999
  H     -689.569     443.853      98.646
  H     -689.878     445.561      99.057
  P     -689.551     447.908     102.165
  C     -691.529     448.588     100.628
  O     -690.139     448.713     100.907
  O     -687.963     448.092     102.018
  O     -690.020     448.373     103.501
  H     -687.562     448.208     102.899
  H     -691.774     449.176      99.768
  H     -692.094     448.933     101.469
  H     -691.764     447.562     100.437

 6  7  8  9  10  11  12  13  14  15  26  29  33  34 0
 6-311+G(2d,p)
 ****
 36  38  39  40  41 0
 6-311+G(2d,p)
 ****
 1  2  3  4  5  16  17  18  19  20  21  22  23  24  25 0
 3-21G
 ****
 27  28  30  31  32  35  37  42  43  44  45  46  47 0
 3-21G
 ****
 48  49 0
 3-21G
 ****


