%nproc=1
%NoSave
%Mem=1900MB
#P OB98/GEN NMR

erre ene a

0 1
  C     -494.410    -610.793     387.036
  O     -494.288    -609.415     386.707
  P     -495.269    -608.323     387.351
  C     -496.526    -607.871     385.140
  O     -495.657    -607.354     386.137
  C     -497.664    -606.882     384.874
  O     -498.453    -606.728     386.069
  C     -497.204    -605.483     384.488
  O     -496.765    -605.444     383.143
  C     -498.458    -604.677     384.795
  O     -499.414    -604.808     383.731
  C     -498.991    -605.378     386.063
  N     -498.647    -604.674     387.292
  C     -499.658    -603.908     387.876
  O     -500.784    -603.855     387.377
  N     -499.390    -603.245     389.047
  C     -498.208    -603.310     389.576
  N     -498.018    -602.690     390.772
  C     -497.093    -604.058     388.961
  C     -497.380    -604.711     387.837
  O     -494.733    -607.631     388.557
  O     -496.633    -609.113     387.610
  H     -498.916    -604.731     382.893
  H     -496.669    -609.557     388.496
  H     -496.120    -604.078     389.434
  H     -496.624    -605.304     387.339
  H     -500.079    -605.489     386.013
  H     -498.270    -603.608     384.939
  H     -496.386    -605.157     385.142
  H     -498.308    -607.304     384.090
  H     -498.845    -602.342     391.242
  H     -496.951    -608.814     385.505
  H     -497.239    -602.930     391.374
  H     -495.954    -608.068     384.227
  P     -495.315    -604.817     382.848
  C     -496.137    -603.371     380.860
  O     -495.310    -604.437     381.288
  O     -494.339    -606.085     382.960
  O     -494.923    -603.716     383.784
  H     -493.892    -606.092     383.818
  H     -495.843    -603.089     379.846
  H     -496.022    -602.499     381.514
  H     -497.184    -603.697     380.846
  H     -493.669    -611.353     386.506
  H     -495.384    -611.140     386.761
  H     -494.269    -610.922     388.089

 3  4  5  6  7  8  9  10  11  12  13  23  27  28  29  30  32 0
 6-311+G(2d,p)
 ****
 34  35 0
 6-311+G(2d,p)
 ****
 1  2  14  15  16  17  18  19  20  21  22  24  25  26 0
 3-21G
 ****
 31  33  36  37  38  39  40  41  42  43  44  45  46 0
 3-21G
 ****


