%nproc=1
%NoSave
%Mem=1900MB
#P OB98/GEN NMR

erre ene a

0 1
  C      231.748     631.045     -72.541
  O      232.517     631.804     -73.461
  H      231.734     630.005     -72.870
  H      230.719     631.422     -72.513
  H      232.188     631.094     -71.545
  P      232.682     633.365     -73.139
  C      231.590     634.367     -75.282
  O      231.473     634.110     -73.889
  C      230.431     635.239     -75.749
  O      229.203     634.471     -75.727
  C      230.168     636.449     -74.853
  O      231.076     637.509     -75.097
  C      228.730     636.779     -75.229
  O      228.671     637.576     -76.425
  C      228.121     635.399     -75.478
  N      223.374     635.104     -73.620
  C      223.852     635.534     -74.808
  N      225.136     635.566     -75.233
  C      225.953     635.061     -74.291
  C      225.609     634.582     -73.039
  C      224.250     634.608     -72.709
  N      223.761     634.200     -71.491
  N      226.739     634.187     -72.347
  C      227.746     634.419     -73.166
  N      227.317     634.944     -74.358
  O      233.971     633.777     -74.000
  O      232.846     633.703     -71.697
  H      227.741     637.847     -76.523
  H      234.751     633.810     -73.418
  H      223.115     635.909     -75.510
  H      228.789     634.233     -72.950
  H      227.477     635.386     -76.365
  H      228.239     637.339     -74.432
  H      230.197     636.147     -73.801
  H      230.621     635.554     -76.785
  H      231.576     633.418     -75.829
  H      232.545     634.866     -75.466
  H      222.785     634.303     -71.298
  H      224.420     633.939     -70.768
  P      231.389     638.512     -73.889
  C      230.513     640.580     -75.226
  O      230.413     639.778     -74.054
  O      232.830     639.098     -74.248
  O      231.360     637.884     -72.542
  H      233.347     639.239     -73.420
  H      229.798     641.374     -75.177
  H      230.318     639.977     -76.088
  H      231.499     640.991     -75.294

 6  7  8  9  10  11  12  13  14  15  25  28  32  33  34  35 0
 6-311+G(2d,p)
 ****
 36  37  40 0
 6-311+G(2d,p)
 ****
 1  2  3  4  5  16  17  18  19  20  21  22  23  24 0
 3-21G
 ****
 26  27  29  30  31  38  39 41  42  43  44  45  46  47  48 0
 3-21G
 ****


