%nproc=1
%NoSave
%Mem=1900MB
#P OB98/GEN NMR

erre ene a

0 1
  C     -208.681     123.174     614.326
  O     -208.284     124.492     613.998
  H     -208.446     122.984     615.374
  H     -208.139     122.453     613.706
  H     -209.759     123.051     614.173
  P     -208.623     125.006     612.520
  C     -206.853     126.906     612.555
  O     -208.235     126.566     612.478
  C     -206.604     127.882     613.705
  O     -207.340     129.109     613.456
  C     -207.050     127.356     615.086
  O     -206.125     127.851     616.064
  C     -208.378     128.053     615.297
  O     -208.750     128.125     616.673
  C     -208.085     129.407     614.654
  N     -211.003     133.187     616.250
  C     -209.796     132.713     616.739
  N     -209.290     133.344     617.820
  N     -209.147     131.714     616.205
  C     -209.751     131.207     615.110
  C     -210.939     131.575     614.529
  C     -211.666     132.666     615.145
  O     -212.746     133.120     614.769
  N     -211.233     130.781     613.441
  C     -210.214     129.937     613.373
  N     -209.296     130.153     614.358
  O     -210.227     125.018     612.508
  O     -208.065     124.180     611.405
  H     -208.671     127.217     617.059
  H     -210.567     124.176     612.152
  H     -211.459     133.952     616.710
  H     -210.114     129.156     612.626
  H     -207.468     130.049     615.289
  H     -209.178     127.525     614.758
  H     -209.711     134.158     618.257
  H     -207.113     126.268     615.154
  H     -208.384     133.045     618.167
  H     -205.536     128.140     613.714
  H     -206.554     127.380     611.611
  H     -206.265     125.993     612.698
  P     -204.844     126.946     616.416
  C     -204.845     127.499     618.971
  O     -204.145     127.568     617.733
  O     -203.803     127.328     615.256
  O     -205.118     125.483     616.459
  H     -203.206     126.579     615.094
  H     -204.254     127.950     619.740
  H     -205.031     126.475     619.219
  H     -205.776     128.020     618.884

 6  7  8  9  10  11  12  13  14  15  26  29  33  34 0
 6-311+G(2d,p)
 ****
 36  38  39  40  41 0
 6-311+G(2d,p)
 ****
 1  2  3  4  5  16  17  18  19  20  21  22  23  24  25 0
 3-21G
 ****
 27  28  30  31  32  35  37  42  43  44  45  46  47 0
 3-21G
 ****
 48  49 0
 3-21G
 ****


