%nproc=1
%NoSave
%Mem=1900MB
#P OB98/GEN NMR

erre ene a

0 1
  C      -43.123     166.758     539.084
  O      -44.495     167.056     538.973
  H      -42.942     166.293     540.063
  H      -42.515     167.663     539.012
  H      -42.822     166.042     538.304
  P      -45.014     167.804     537.649
  C      -45.327     165.537     536.443
  O      -44.717     166.827     536.413
  C      -46.591     165.538     535.586
  O      -46.197     165.796     534.204
  C      -47.329     164.182     535.628
  O      -48.709     164.301     535.966
  C      -46.995     163.555     534.272
  O      -47.947     162.628     533.793
  C      -46.785     164.768     533.361
  N      -45.923     164.520     532.206
  C      -46.307     165.112     530.997
  O      -47.282     165.837     530.845
  N      -45.489     164.827     529.942
  C      -44.366     164.043     529.949
  O      -43.674     163.849     528.963
  C      -44.043     163.436     531.245
  C      -44.812     163.698     532.296
  O      -44.534     169.207     537.472
  O      -46.613     167.742     537.773
  H      -47.665     162.375     532.882
  H      -46.950     168.616     538.066
  H      -45.744     165.272     529.056
  H      -43.164     162.800     531.288
  H      -44.606     163.260     533.271
  H      -47.742     165.161     532.998
  H      -46.033     163.023     534.374
  H      -46.930     163.543     536.422
  H      -47.251     166.356     535.908
  H      -45.573     165.306     537.487
  H      -44.622     164.789     536.065
  P      -49.580     163.161     536.675
  C      -50.046     164.017     539.118
  O      -49.267     163.197     538.247
  O      -49.551     161.820     536.012
  O      -51.083     163.725     536.585
  H      -51.672     162.939     536.492
  H      -49.691     163.909     540.122
  H      -51.072     163.716     539.069
  H      -49.959     165.040     538.817

 6  7  8  9  10  11  12  13  14  15  16  26  31  32  33  34  35 0
 6-311+G(2d,p)
 ****
 36  37 0
 6-311+G(2d,p)
 ****
 1  2  3  4  5  17  18  19  20  21  22  23  24  25 0
 3-21G
 ****
 27  28  29  30  38  39  40  41  42  43  44  45 0
 3-21G
 ****


