%nproc=1
%NoSave
%Mem=1900MB
#P OB98/GEN NMR

erre ene a

0 1
  C      204.235     811.205      29.576
  O      204.616     809.827      29.533
  P      205.371     809.301      28.214
  C      207.423     808.474      29.580
  O      206.954     809.279      28.504
  C      208.869     808.019      29.340
  O      208.911     806.934      28.364
  C      209.791     809.123      28.806
  O      211.118     808.872      29.273
  C      209.748     808.898      27.313
  O      210.845     809.534      26.649
  C      209.732     807.372      27.263
  N      210.546     807.156      22.289
  C      211.257     807.802      23.284
  N      212.378     808.455      22.891
  N      210.917     807.807      24.542
  C      209.798     807.072      24.785
  C      209.002     806.401      23.891
  C      209.386     806.428      22.491
  O      208.785     805.890      21.573
  N      207.933     805.798      24.521
  C      208.082     806.123      25.787
  N      209.217     806.864      26.007
  O      205.196     810.527      27.200
  O      204.801     808.043      27.652
  H      210.934     809.112      25.766
  H      204.563     810.280      26.500
  H      210.860     807.198      21.330
  H      207.413     805.849      26.583
  H      210.736     806.943      27.393
  H      208.812     809.312      26.895
  H      212.736     808.454      21.950
  H      209.495     810.136      29.090
  H      212.937     808.903      23.601
  H      209.274     807.624      30.287
  H      206.782     807.597      29.706
  H      207.335     809.046      30.509
  P      211.404     809.121      30.830
  C      212.866     806.984      31.026
  O      211.712     807.681      31.466
  O      209.969     809.483      31.425
  O      212.424     810.184      31.112
  H      210.059     810.022      32.228
  H      213.642     807.060      31.796
  H      213.255     807.371      30.083
  H      212.611     805.925      30.890
  H      203.746     811.411      30.505
  H      203.567     811.416      28.767
  H      205.107     811.819      29.488

 3  4  5  6  7  8  9  10  11  12  23  26  30  31 0
 6-311+G(2d,p)
 ****
 33  35  36  37  38 0
 6-311+G(2d,p)
 ****
 1  2  13  14  15  16  17  18  19  20  21  22  24  25 0
 3-21G
 ****
 27  28  29  32  34  39  40  41  42  43  44  45  46  47  48  49 0
 3-21G
 ****


