%nproc=1
%NoSave
%Mem=1900MB
#P OB98/GEN NMR

erre ene a

0 1
  C      722.975     804.244    -478.534
  O      722.664     803.000    -477.952
  H      723.641     804.794    -477.861
  H      722.062     804.829    -478.676
  H      723.477     804.109    -479.496
  P      721.709     802.015    -478.798
  C      723.909     801.320    -480.009
  O      722.541     801.679    -480.138
  C      724.549     801.214    -481.395
  O      724.092     800.019    -482.051
  C      724.227     802.418    -482.312
  O      725.419     802.818    -483.002
  C      723.208     801.867    -483.282
  O      723.202     802.569    -484.514
  C      723.596     800.378    -483.358
  N      722.468     799.533    -483.731
  C      722.061     799.606    -485.098
  O      722.650     800.355    -485.888
  N      720.968     798.870    -485.493
  C      720.323     798.168    -484.629
  N      719.242     797.481    -485.089
  C      720.672     798.100    -483.194
  C      721.752     798.802    -482.821
  O      720.545     802.981    -479.299
  O      721.225     800.810    -478.055
  H      723.023     803.510    -484.328
  H      719.779     802.473    -479.654
  H      720.077     797.517    -482.497
  H      722.089     798.828    -481.799
  H      724.404     800.236    -484.081
  H      722.199     801.960    -482.831
  H      723.836     803.267    -481.771
  H      725.649     801.098    -481.269
  H      719.026     797.550    -486.081
  H      723.981     800.347    -479.507
  H      718.629     796.920    -484.494
  H      724.436     802.074    -479.409
  P      726.036     804.236    -482.565
  C      727.956     803.892    -480.845
  O      726.565     804.082    -481.043
  O      724.740     805.163    -482.422
  O      727.028     804.772    -483.523
  H      724.641     805.717    -483.212
  H      728.159     803.807    -479.798
  H      728.491     804.728    -481.245
  H      728.268     802.998    -481.343

 6  7  8  9  10  11  12  13  14  15  16  26  30  31  32  33  35 0
 6-311+G(2d,p)
 ****
 37  38 0
 6-311+G(2d,p)
 ****
 1  2  3  4  5  17  18  19  20  21  22  23  24  25 0
 3-21G
 ****
 27  28  29  34  36  39  40  41  42  43  44  45  46 0
 3-21G
 ****


