%nproc=1
%NoSave
%Mem=1900MB
#P OB98/GEN NMR

erre ene a

0 1
  C       63.763     249.501    -208.326
  O       62.370     249.696    -208.188
  H       64.268     250.463    -208.204
  H       63.977     249.119    -209.329
  H       64.141     248.805    -207.575
  P       61.470     248.393    -207.933
  C       60.959     246.876    -205.886
  O       61.533     248.089    -206.355
  C       61.345     246.637    -204.426
  O       62.787     246.417    -204.355
  C       61.000     247.802    -203.484
  O       60.590     247.273    -202.217
  C       62.345     248.487    -203.299
  O       62.406     249.250    -202.094
  C       63.284     247.286    -203.317
  N       67.161     249.704    -201.234
  C       65.962     249.279    -200.683
  N       65.732     249.599    -199.390
  N       65.063     248.601    -201.346
  C       65.430     248.330    -202.623
  C       66.578     248.695    -203.284
  C       67.558     249.465    -202.545
  O       68.625     249.884    -202.980
  N       66.542     248.282    -204.597
  C       65.368     247.684    -204.730
  N       64.659     247.691    -203.558
  O       62.353     247.223    -208.580
  O       60.097     248.441    -208.518
  H       63.327     249.544    -201.969
  H       62.065     247.061    -209.497
  H       67.809     250.240    -200.683
  H       64.983     247.256    -205.643
  H       63.275     246.730    -202.370
  H       62.547     249.161    -204.143
  H       66.390     250.093    -198.806
  H       60.230     248.479    -203.873
  H       64.881     249.261    -198.962
  H       60.863     245.714    -204.088
  H       61.327     246.043    -206.493
  H       59.870     246.935    -205.990
  P       59.023     247.252    -201.878
  C       57.677     245.803    -203.573
  O       58.414     245.850    -202.359
  O       58.415     248.294    -202.932
  O       58.706     247.640    -200.477
  H       57.664     248.768    -202.531
  H       57.343     244.802    -203.749
  H       58.302     246.117    -204.382
  H       56.831     246.454    -203.502

 6  7  8  9  10  11  12  13  14  15  26  29  33  34 0
 6-311+G(2d,p)
 ****
 36  38  39  40  41 0
 6-311+G(2d,p)
 ****
 1  2  3  4  5  16  17  18  19  20  21  22  23  24  25 0
 3-21G
 ****
 27  28  30  31  32  35  37  42  43  44  45  46  47 0
 3-21G
 ****
 48  49 0
 3-21G
 ****


