%nproc=1
%NoSave
%Mem=1900MB
#P OB98/GEN NMR

erre ene a

0 1
  C      -43.329    -247.683     119.821
  O      -42.853    -246.829     118.799
  H      -43.353    -248.706     119.441
  H      -44.340    -247.388     120.113
  H      -42.665    -247.642     120.689
  P      -42.704    -245.278     119.176
  C      -44.493    -244.538     117.429
  O      -43.143    -244.464     117.865
  C      -44.562    -244.427     115.902
  O      -44.222    -243.062     115.518
  C      -43.578    -245.357     115.172
  O      -44.148    -245.714     113.901
  C      -42.392    -244.435     114.946
  O      -41.532    -244.969     113.967
  C      -43.129    -243.152     114.582
  N      -40.295    -239.886     111.878
  C      -41.087    -240.915     111.508
  N      -41.819    -241.733     112.291
  C      -41.696    -241.385     113.583
  C      -40.925    -240.367     114.113
  C      -40.191    -239.594     113.197
  N      -39.364    -238.561     113.571
  N      -41.037    -240.340     115.492
  C      -41.866    -241.322     115.784
  N      -42.290    -241.978     114.662
  O      -41.119    -245.067     119.242
  O      -43.380    -244.852     120.435
  H      -41.980    -245.025     113.098
  H      -40.805    -245.193     120.156
  H      -41.141    -241.106     110.439
  H      -42.183    -241.605     116.778
  H      -43.552    -243.186     113.571
  H      -41.810    -244.312     115.863
  H      -43.337    -246.262     115.733
  H      -45.594    -244.599     115.575
  H      -45.053    -243.718     117.889
  H      -44.925    -245.493     117.744
  H      -38.851    -238.075     112.852
  H      -39.248    -238.353     114.552
  P      -45.019    -247.059     113.786
  C      -43.544    -249.208     113.673
  O      -44.217    -248.179     112.965
  O      -46.160    -246.628     112.744
  O      -45.640    -247.531     115.061
  H      -47.030    -246.923     113.069
  H      -43.064    -249.865     112.978
  H      -44.251    -249.761     114.256
  H      -42.809    -248.775     114.319

 6  7  8  9  10  11  12  13  14  15  25  28  32  33  34  35 0
 6-311+G(2d,p)
 ****
 36  37  40 0
 6-311+G(2d,p)
 ****
 1  2  3  4  5  16  17  18  19  20  21  22  23  24 0
 3-21G
 ****
 26  27  29  30  31  38  39 41  42  43  44  45  46  47  48 0
 3-21G
 ****


