%nproc=1
%NoSave
%Mem=1900MB
#P OB98/GEN NMR

erre ene a

0 1
  C      -32.572       1.718      22.257
  O      -32.751       0.321      22.177
  P      -32.306      -0.502      20.878
  C      -34.565       0.442      20.076
  O      -33.597      -0.590      19.923
  C      -35.972      -0.160      20.172
  O      -36.928       0.923      20.394
  C      -36.392      -0.907      18.891
  O      -36.854      -2.241      19.109
  C      -37.403       0.040      18.266
  O      -38.282      -0.581      17.348
  C      -38.037       0.679      19.506
  N      -38.777       1.898      19.192
  C      -40.156       1.784      19.048
  O      -40.784       0.737      19.178
  N      -40.817       2.923      18.680
  C      -40.239       4.107      18.335
  O      -40.885       5.058      17.918
  C      -38.775       4.157      18.468
  C      -38.121       3.079      18.905
  O      -31.651      -1.814      21.146
  O      -31.380       0.540      20.089
  H      -37.742      -0.986      16.644
  H      -31.821       1.369      19.835
  H      -41.817       2.853      18.572
  H      -38.288       5.081      18.192
  H      -37.042       3.086      19.013
  H      -38.712      -0.013      20.012
  H      -36.846       0.803      17.708
  H      -35.541      -1.030      18.211
  H      -35.992      -0.824      21.041
  H      -34.517       1.101      19.207
  H      -34.330       1.044      20.960
  P      -36.498      -3.499      18.187
  C      -38.870      -3.352      17.134
  O      -37.868      -4.168      17.705
  O      -35.500      -4.447      18.764
  O      -35.930      -2.830      16.847
  H      -35.287      -3.433      16.429
  H      -39.845      -3.805      17.331
  H      -38.720      -3.303      16.052
  H      -38.855      -2.343      17.553
  H      -32.933       2.070      23.201
  H      -33.116       2.193      21.467
  H      -31.532       1.950      22.164

 3  4  5  6  7  8  9  10  11  12  13  23  28  29  30  31  32 0
 6-311+G(2d,p)
 ****
 33  34 0
 6-311+G(2d,p)
 ****
 1  2  14  15  16  17  18  19  20  21  22  24  25  26  27 0
 3-21G
 ****
 35  36  37  38  39  40  41  42  43  44  45 0
 3-21G
 ****


