%nproc=1
%NoSave
%Mem=1900MB
#P OB98/GEN NMR

erre ene a

0 1
  C     -212.516    -500.218    -477.627
  O     -213.310    -499.303    -476.876
  P     -214.396    -499.927    -475.868
  C     -212.829    -499.943    -473.782
  O     -213.574    -500.706    -474.721
  C     -213.407    -500.075    -472.376
  O     -213.709    -501.484    -472.129
  C     -212.475    -499.594    -471.248
  O     -213.307    -499.037    -470.232
  C     -211.855    -500.912    -470.782
  O     -211.229    -500.839    -469.504
  C     -213.055    -501.838    -470.890
  N     -211.404    -505.744    -468.012
  C     -211.747    -504.467    -467.700
  N     -212.185    -503.490    -468.516
  C     -212.272    -503.929    -469.793
  C     -211.940    -505.189    -470.260
  C     -211.491    -506.126    -469.311
  N     -211.138    -507.430    -469.636
  N     -212.134    -505.271    -471.626
  C     -212.573    -504.075    -471.972
  N     -212.687    -503.244    -470.888
  O     -215.052    -501.106    -476.718
  O     -215.424    -498.952    -475.367
  H     -211.902    -500.733    -468.804
  H     -216.011    -501.171    -476.558
  H     -211.650    -504.202    -466.650
  H     -212.805    -503.762    -472.989
  H     -213.773    -501.685    -470.071
  H     -211.068    -501.202    -471.498
  H     -211.751    -498.849    -471.572
  H     -214.361    -499.520    -472.339
  H     -212.859    -498.874    -474.071
  H     -210.639    -507.954    -468.921
  H     -211.006    -507.639    -470.625
  H     -211.776    -500.255    -473.817
  P     -212.624    -498.158    -469.068
  C     -213.040    -495.899    -470.258
  O     -212.075    -496.848    -469.850
  O     -211.269    -498.970    -468.814
  O     -213.455    -497.918    -467.857
  H     -210.796    -499.149    -469.650
  H     -212.523    -495.040    -470.682
  H     -213.633    -495.573    -469.392
  H     -213.691    -496.327    -471.022
  H     -211.840    -499.673    -478.253
  H     -213.152    -500.827    -478.234
  H     -211.960    -500.840    -476.958

 3  4  5  6  7  8  9  10  11  12  22  25  29  30  31  32 0
 6-311+G(2d,p)
 ****
 33  36  37 0
 6-311+G(2d,p)
 ****
 1  2  13  14  15  16  17  18  19  20  21  23  24  26 0
 3-21G
 ****
 27  28  34  35  38  39  40  41  42  43  44  45  46  47  48 0
 3-21G
 ****


