%nproc=1
%NoSave
%Mem=1900MB
#P OB98/GEN NMR

erre ene a

0 1
  C     -343.361      99.003    -659.614
  O     -343.482      97.604    -659.888
  P     -342.530      96.596    -659.065
  C     -342.497      94.915    -661.070
  O     -342.711      95.115    -659.678
  C     -342.991      93.540    -661.498
  O     -342.090      92.476    -661.065
  C     -344.356      93.158    -660.915
  O     -345.407      93.736    -661.674
  C     -344.333      91.655    -661.084
  O     -344.664      91.309    -662.441
  C     -342.873      91.293    -660.788
  N     -342.436      87.294    -657.611
  C     -342.700      87.385    -658.948
  N     -342.820      88.486    -659.705
  C     -342.604      89.589    -658.982
  C     -342.329      89.653    -657.619
  C     -342.245      88.447    -656.934
  N     -341.948      88.382    -655.579
  N     -342.192      90.968    -657.228
  C     -342.372      91.687    -658.332
  N     -342.640      90.890    -659.410
  O     -343.260      96.501    -657.637
  O     -341.118      97.057    -658.928
  H     -344.330      90.408    -662.609
  H     -342.597      96.403    -656.942
  H     -342.848      86.410    -659.466
  H     -342.320      92.761    -658.392
  H     -342.509      90.498    -661.439
  H     -345.059      91.144    -660.451
  H     -344.409      93.431    -659.856
  H     -343.031      93.519    -662.607
  H     -341.427      95.024    -661.297
  H     -341.890      87.443    -655.163
  H     -341.795      89.227    -655.066
  H     -343.008      95.706    -661.625
  P     -346.128      95.026    -661.053
  C     -348.653      94.719    -661.623
  O     -347.411      95.302    -661.973
  O     -345.118      96.228    -661.430
  O     -346.387      94.970    -659.582
  H     -345.165      96.929    -660.750
  H     -349.454      95.243    -662.161
  H     -348.830      94.806    -660.540
  H     -348.657      93.664    -661.901
  H     -344.048      99.547    -660.228
  H     -342.362      99.323    -659.826
  H     -343.583      99.185    -658.583

 3  4  5  6  7  8  9  10  11  12  22  25  29  30  31  32 0
 6-311+G(2d,p)
 ****
 33  36  37 0
 6-311+G(2d,p)
 ****
 1  2  13  14  15  16  17  18  19  20  21  23  24  26 0
 3-21G
 ****
 27  28  34  35  38  39  40  41  42  43  44  45  46  47  48 0
 3-21G
 ****


