%nproc=1
%NoSave
%Mem=1900MB
#P OB98/GEN NMR

erre ene a

0 1
  C      171.252      25.468      33.691
  O      172.224      26.256      34.354
  P      173.655      25.609      34.658
  C      173.340      26.254      37.156
  O      174.197      26.247      36.027
  C      174.085      26.771      38.389
  O      173.136      26.975      39.478
  C      175.176      25.820      38.905
  O      176.236      26.626      39.439
  C      174.469      25.095      40.034
  O      175.362      24.487      40.954
  C      173.639      26.244      40.615
  N      172.556      25.783      41.482
  C      172.644      26.096      42.835
  O      173.570      26.731      43.336
  N      171.645      25.597      43.628
  C      170.644      24.760      43.228
  O      169.849      24.253      44.011
  C      170.602      24.464      41.788
  C      171.543      24.981      40.994
  O      174.596      26.256      33.538
  O      173.686      24.117      34.619
  H      176.130      25.078      41.052
  H      174.735      25.629      32.804
  H      171.687      25.822      44.609
  H      169.807      23.821      41.433
  H      171.548      24.761      39.931
  H      174.286      26.932      41.175
  H      173.827      24.309      39.618
  H      175.562      25.139      38.141
  H      174.517      27.752      38.149
  H      172.992      25.238      37.350
  H      172.463      26.875      36.948
  P      177.714      26.413      38.846
  C      177.847      23.891      39.513
  O      178.364      25.196      39.656
  O      178.458      27.708      39.429
  O      177.754      26.321      37.355
  H      178.231      27.883      40.357
  H      177.484      23.709      38.499
  H      177.027      23.747      40.221
  H      178.639      23.171      39.739
  H      170.357      26.040      33.563
  H      171.039      24.598      34.276
  H      171.626      25.171      32.733

 3  4  5  6  7  8  9  10  11  12  13  23  28  29  30  31  32 0
 6-311+G(2d,p)
 ****
 33  34 0
 6-311+G(2d,p)
 ****
 1  2  14  15  16  17  18  19  20  21  22  24  25  26 0
 3-21G
 ****
 27  35  36  37  38  39  40  41  42  43  44  45 0
 3-21G
 ****


