%nproc=1
%NoSave
%Mem=1900MB
#P OB98/GEN NMR

erre ene a

0 1
  C      242.672    -203.622    -351.288
  O      242.859    -204.266    -350.044
  P      242.506    -205.828    -349.946
  C      243.425    -205.951    -347.509
  O      242.335    -206.182    -348.391
  C      242.914    -205.310    -346.215
  O      242.504    -203.947    -346.461
  C      241.693    -206.007    -345.629
  O      242.056    -207.188    -344.933
  C      241.120    -204.922    -344.732
  O      241.785    -204.901    -343.461
  C      241.435    -203.643    -345.536
  N      240.263    -203.106    -346.217
  C      239.928    -201.788    -345.909
  O      240.557    -201.112    -345.096
  N      238.822    -201.290    -346.538
  C      238.001    -201.978    -347.383
  O      236.985    -201.493    -347.874
  C      238.382    -203.374    -347.644
  C      239.477    -203.868    -347.059
  O      243.871    -206.555    -350.357
  O      241.364    -206.258    -350.806
  H      241.270    -204.301    -342.884
  H      243.672    -207.372    -350.856
  H      238.577    -200.331    -346.351
  H      237.753    -203.954    -348.313
  H      239.766    -204.899    -347.227
  H      241.828    -202.867    -344.866
  H      240.053    -205.070    -344.532
  H      240.969    -206.230    -346.428
  H      243.736    -205.293    -345.486
  H      244.149    -205.286    -347.990
  H      243.923    -206.901    -347.295
  P      241.146    -208.486    -345.182
  C      243.249    -209.854    -344.446
  O      241.854    -209.657    -344.346
  O      241.495    -208.802    -346.714
  O      239.702    -208.252    -344.904
  H      242.404    -208.558    -346.941
  H      243.781    -208.907    -344.560
  H      243.466    -210.498    -345.302
  H      243.598    -210.348    -343.533
  H      242.947    -202.592    -351.201
  H      241.644    -203.694    -351.576
  H      243.284    -204.093    -352.029

 3  4  5  6  7  8  9  10  11  12  13  23  28  29  30  31  32 0
 6-311+G(2d,p)
 ****
 33  34 0
 6-311+G(2d,p)
 ****
 1  2  14  15  16  17  18  19  20  21  22  24  25  26 0
 3-21G
 ****
 27  35  36  37  38  39  40  41  42  43  44  45 0
 3-21G
 ****


