%nproc=1
%NoSave
%Mem=1900MB
#P OB98/GEN NMR

erre ene a

0 1
  C     -133.781     -30.074     177.187
  O     -133.180     -28.953     177.828
  P     -134.152     -27.799     178.368
  C     -134.295     -26.387     176.162
  O     -134.951     -27.206     177.111
  C     -135.012     -25.032     176.011
  O     -134.223     -24.190     175.133
  C     -136.398     -25.096     175.376
  O     -137.097     -23.886     175.682
  C     -136.059     -25.122     173.902
  O     -137.181     -24.769     173.098
  C     -134.848     -24.165     173.822
  N     -133.864     -24.539     172.783
  C     -134.260     -24.496     171.450
  O     -135.386     -24.166     171.077
  N     -133.325     -24.887     170.529
  C     -132.047     -25.270     170.802
  O     -131.278     -25.694     169.948
  C     -131.638     -25.164     172.207
  C     -132.550     -24.820     173.119
  O     -133.148     -26.627     178.785
  O     -135.019     -28.227     179.503
  H     -136.850     -24.697     172.173
  H     -133.072     -26.578     179.755
  H     -133.620     -24.925     169.565
  H     -130.609     -25.395     172.454
  H     -132.268     -24.757     174.168
  H     -135.170     -23.138     173.610
  H     -135.756     -26.132     173.611
  H     -136.996     -25.960     175.675
  H     -135.057     -24.539     176.989
  H     -134.247     -26.900     175.199
  H     -133.259     -26.215     176.478
  P     -138.292     -23.960     176.748
  C     -140.055     -25.172     175.325
  O     -139.134     -25.277     176.393
  O     -139.089     -22.711     176.923
  O     -137.540     -24.379     178.100
  H     -138.102     -24.168     178.868
  H     -140.159     -26.153     174.852
  H     -139.720     -24.450     174.574
  H     -141.027     -24.861     175.718
  H     -133.019     -30.760     176.880
  H     -134.330     -29.743     176.330
  H     -134.446     -30.561     177.870

 3  4  5  6  7  8  9  10  11  12  13  23  28  29  30  31  32 0
 6-311+G(2d,p)
 ****
 33  34 0
 6-311+G(2d,p)
 ****
 1  2  14  15  16  17  18  19  20  21  22  24  25  26  27 0
 3-21G
 ****
 35  36  37  38  39  40  41  42  43  44  45 0
 3-21G
 ****


