%nproc=1
%NoSave
%Mem=1900MB
#P OB98/GEN NMR

erre ene a

0 1
  C     -188.845     359.790      14.387
  O     -188.071     358.805      15.033
  H     -188.333     360.079      13.462
  H     -188.946     360.679      15.019
  H     -189.830     359.399      14.131
  P     -188.490     358.330      16.512
  C     -186.336     358.889      17.792
  O     -187.107     357.853      17.197
  C     -184.836     358.598      17.697
  O     -184.552     357.293      18.267
  C     -184.294     358.603      16.259
  O     -183.086     359.367      16.206
  C     -184.006     357.135      15.977
  O     -183.023     356.967      14.961
  C     -183.627     356.635      17.376
  N     -183.695     355.181      17.500
  C     -182.542     354.473      17.157
  O     -181.544     355.067      16.735
  N     -182.550     353.101      17.254
  C     -183.631     352.489      17.617
  N     -183.583     351.135      17.687
  C     -184.892     353.199      17.945
  C     -184.849     354.532      17.872
  O     -189.592     357.327      16.558
  O     -188.823     359.690      17.289
  H     -182.148     357.214      15.330
  H     -189.383     359.488      18.083
  H     -185.773     352.648      18.227
  H     -185.725     355.133      18.104
  H     -182.608     356.961      17.644
  H     -184.930     356.639      15.644
  H     -184.992     359.019      15.533
  H     -184.300     359.324      18.324
  H     -182.704     350.687      17.456
  H     -186.638     358.990      18.845
  H     -184.371     350.554      17.951
  H     -186.551     359.827      17.264
  P     -183.182     360.800      15.487
  C     -181.132     360.294      13.975
  O     -181.723     361.173      14.926
  O     -183.394     361.810      16.705
  O     -184.287     360.890      14.489
  H     -184.334     362.056      16.780
  H     -180.169     360.667      13.694
  H     -181.757     360.233      13.109
  H     -181.025     359.321      14.407

 6  7  8  9  10  11  12  13  14  15  16  26  30  31  32  33  35 0
 6-311+G(2d,p)
 ****
 37  38 0
 6-311+G(2d,p)
 ****
 1  2  3  4  5  17  18  19  20  21  22  23  24  25 0
 3-21G
 ****
 27  28  29  34  36  39  40  41  42  43  44  45  46 0
 3-21G
 ****


