%nproc=1
%NoSave
%Mem=1900MB
#P OB98/GEN NMR

erre ene a

0 1
  C      101.328      61.267      36.273
  O      100.706      62.540      36.302
  P      100.398      63.271      37.689
  C       98.689      62.882      39.643
  O       99.067      62.645      38.304
  C       97.207      62.522      39.811
  O       96.981      61.152      39.422
  C       96.752      62.683      41.259
  O       96.168      63.960      41.461
  C       95.773      61.537      41.428
  O       94.485      61.893      40.893
  C       96.429      60.437      40.560
  N       97.509      59.630      41.159
  C       97.264      58.911      42.325
  O       96.175      58.875      42.890
  N       98.342      58.238      42.846
  C       99.590      58.186      42.297
  O      100.590      57.792      42.885
  C       99.708      58.732      40.942
  C       98.688      59.437      40.453
  O       99.940      64.734      37.231
  O      101.534      63.317      38.657
  H       94.121      62.593      41.463
  H      100.679      65.366      37.310
  H       98.208      57.829      43.765
  H      100.638      58.589      40.410
  H       98.767      59.885      39.466
  H       95.676      59.737      40.180
  H       95.612      61.307      42.480
  H       97.597      62.525      41.942
  H       96.610      63.163      39.150
  H       98.859      63.932      39.900
  H       99.303      62.279      40.319
  P       96.466      64.759      42.815
  C       96.482      64.076      45.285
  O       95.984      63.784      43.995
  O       95.928      66.150      42.874
  O       98.065      64.735      42.912
  H       98.431      65.577      42.572
  H       95.946      63.463      46.014
  H       96.329      65.132      45.527
  H       97.546      63.833      45.334
  H      101.446      60.951      35.258
  H      100.719      60.561      36.798
  H      102.288      61.328      36.742

 3  4  5  6  7  8  9  10  11  12  13  23  28  29  30  31  32 0
 6-311+G(2d,p)
 ****
 33  34 0
 6-311+G(2d,p)
 ****
 1  2  14  15  16  17  18  19  20  21  22  24  25  26  27 0
 3-21G
 ****
 35  36  37  38  39  40  41  42  43  44  45 0
 3-21G
 ****


