%nproc=1
%NoSave
%Mem=1900MB
#P OB98/GEN NMR

erre ene a

0 1
  C     -130.958     -88.789     -33.395
  O     -130.221     -87.906     -34.244
  P     -128.999     -88.455     -35.128
  C     -127.174     -86.764     -34.519
  O     -127.613     -88.113     -34.386
  C     -125.658     -86.635     -34.724
  O     -124.934     -87.079     -33.549
  C     -125.098     -87.419     -35.919
  O     -124.006     -86.643     -36.423
  C     -124.602     -88.694     -35.260
  O     -123.667     -89.399     -36.074
  C     -124.046     -88.146     -33.940
  N     -123.943     -89.174     -32.908
  C     -122.670     -89.431     -32.392
  O     -121.684     -88.844     -32.849
  N     -122.534     -90.381     -31.407
  C     -123.563     -91.086     -31.046
  N     -123.360     -92.029     -30.086
  C     -124.911     -90.907     -31.626
  C     -125.029     -89.936     -32.537
  O     -129.042     -88.054     -36.572
  O     -129.111     -90.050     -34.987
  H     -123.359     -90.189     -35.575
  H     -128.769     -90.469     -35.802
  H     -125.734     -91.534     -31.312
  H     -125.977     -89.728     -33.013
  H     -123.048     -87.706     -34.091
  H     -125.445     -89.368     -35.068
  H     -125.841     -87.609     -36.699
  H     -125.435     -85.568     -34.845
  H     -122.413     -92.136     -29.733
  H     -127.460     -86.212     -33.613
  H     -124.062     -92.706     -29.816
  H     -127.703     -86.298     -35.359
  P     -124.226     -85.434     -37.448
  C     -123.994     -87.300     -39.192
  O     -124.647     -86.087     -38.851
  O     -123.093     -84.463     -37.531
  O     -125.578     -84.713     -36.960
  H     -125.622     -83.822     -37.347
  H     -124.509     -87.751     -40.044
  H     -124.015     -88.000     -38.349
  H     -122.957     -87.093     -39.467
  H     -131.727     -88.241     -32.892
  H     -130.298     -89.223     -32.673
  H     -131.401     -89.564     -33.985

 3  4  5  6  7  8  9  10  11  12  13  23  27  28  29  30  32 0
 6-311+G(2d,p)
 ****
 34  35 0
 6-311+G(2d,p)
 ****
 1  2  14  15  16  17  18  19  20  21  22  24  25  26 0
 3-21G
 ****
 31  33  36  37  38  39  40  41  42  43  44  45  46 0
 3-21G
 ****


