%nproc=1
%NoSave
%Mem=1900MB
#P OB98/GEN NMR

erre ene a

0 1
  C        0.499     120.004       1.361
  O        1.283     119.029       2.057
  P        2.846     119.329       2.246
  C        3.600     117.887       0.224
  O        3.577     119.173       0.825
  C        4.955     117.602      -0.442
  O        5.223     118.563      -1.501
  C        6.138     117.674       0.528
  O        7.149     116.766       0.072
  C        6.638     119.092       0.337
  O        7.976     119.251       0.808
  C        6.448     119.250      -1.171
  N        9.201     123.324      -2.291
  C        9.597     122.068      -1.873
  N       10.928     121.859      -1.771
  N        8.764     121.103      -1.581
  C        7.467     121.449      -1.764
  C        6.948     122.658      -2.165
  C        7.881     123.723      -2.461
  O        7.587     124.860      -2.821
  N        5.577     122.625      -2.207
  C        5.269     121.401      -1.825
  N        6.381     120.639      -1.580
  O        3.360     118.055       3.070
  O        3.134     120.599       2.979
  H        7.997     118.937       1.738
  H        3.558     118.315       3.988
  H        9.886     124.032      -2.492
  H        4.267     121.018      -1.707
  H        7.263     118.788      -1.743
  H        5.996     119.792       0.887
  H       11.624     122.542      -2.030
  H        5.895     117.448       1.570
  H       11.247     120.934      -1.507
  H        4.916     116.609      -0.904
  H        2.806     117.807      -0.524
  H        3.364     117.135       0.984
  P        7.167     115.307       0.732
  C        8.669     115.829       2.784
  O        7.372     115.529       2.304
  O        8.567     114.694       0.254
  O        6.015     114.436       0.350
  H        8.526     113.721       0.248
  H        8.726     116.895       3.016
  H        9.446     115.572       2.057
  H        8.845     115.257       3.699
  H       -0.518     119.674       1.310
  H        0.883     120.129       0.370
  H        0.545     120.937       1.882

 3  4  5  6  7  8  9  10  11  12  23  26  30  31 0
 6-311+G(2d,p)
 ****
 33  35  36  37  38 0
 6-311+G(2d,p)
 ****
 1  2  13  14  15  16  17  18  19  20  21  22  24  25 0
 3-21G
 ****
 27  28  29  32  34  39  40  41  42  43  44  45  46  47  48  49 0
 3-21G
 ****


