%nproc=1
%NoSave
%Mem=1900MB
#P OB98/GEN NMR

erre ene a

0 1
  C     -257.596    -462.551    -217.091
  O     -256.493    -461.837    -216.573
  H     -258.372    -462.609    -216.321
  H     -257.291    -463.568    -217.362
  H     -258.004    -462.039    -217.965
  P     -255.249    -461.626    -217.565
  C     -255.250    -459.926    -219.538
  O     -255.388    -460.135    -218.143
  C     -255.359    -458.432    -219.867
  O     -256.661    -457.947    -219.420
  C     -254.299    -457.562    -219.167
  O     -254.051    -456.415    -219.998
  C     -255.038    -457.127    -217.908
  O     -254.375    -456.060    -217.273
  C     -256.418    -456.852    -218.504
  N     -258.181    -454.327    -214.417
  C     -257.120    -454.102    -215.226
  N     -256.720    -454.815    -216.301
  C     -257.558    -455.840    -216.537
  C     -258.689    -456.185    -215.811
  C     -258.992    -455.377    -214.699
  N     -260.070    -455.603    -213.870
  N     -259.294    -457.304    -216.354
  C     -258.542    -457.625    -217.393
  N     -257.481    -456.773    -217.533
  O     -255.615    -462.559    -218.815
  O     -253.909    -461.960    -216.993
  H     -254.068    -455.399    -217.927
  H     -255.183    -463.428    -218.720
  H     -256.505    -453.247    -214.967
  H     -258.717    -458.459    -218.060
  H     -256.430    -455.926    -219.090
  H     -255.085    -457.948    -217.185
  H     -253.362    -458.086    -218.980
  H     -255.329    -458.301    -220.956
  H     -256.041    -460.479    -220.056
  H     -254.278    -460.301    -219.875
  H     -260.212    -454.990    -213.089
  H     -260.672    -456.395    -214.056
  P     -253.049    -456.553    -221.248
  C     -253.258    -457.092    -223.802
  O     -253.915    -456.796    -222.575
  O     -252.410    -458.003    -221.000
  O     -251.980    -455.513    -221.340
  H     -251.513    -458.041    -221.389
  H     -253.987    -457.222    -224.574
  H     -252.688    -457.991    -223.694
  H     -252.605    -456.285    -224.061

 6  7  8  9  10  11  12  13  14  15  25  28  32  33  34  35 0
 6-311+G(2d,p)
 ****
 36  37  40 0
 6-311+G(2d,p)
 ****
 1  2  3  4  5  16  17  18  19  20  21  22  23  24 0
 3-21G
 ****
 26  27  29  30  31  38  39 41  42  43  44  45  46  47  48 0
 3-21G
 ****


