%nproc=1
%NoSave
%Mem=1900MB
#P OB98/GEN NMR

erre ene a

0 1
  C     -415.773     166.097     239.050
  O     -416.092     165.314     237.894
  P     -415.531     163.812     237.744
  C     -413.971     164.285     235.779
  O     -415.116     163.562     236.208
  C     -414.222     165.134     234.521
  O     -414.458     164.291     233.367
  C     -415.403     166.103     234.620
  O     -415.049     167.250     233.844
  C     -416.519     165.314     233.952
  O     -417.605     166.152     233.546
  C     -415.754     164.625     232.823
  N     -416.457     163.450     232.317
  C     -417.474     163.658     231.385
  O     -417.794     164.807     231.067
  N     -418.141     162.574     230.887
  C     -417.891     161.391     231.333
  N     -418.601     160.351     230.812
  C     -416.868     161.122     232.387
  C     -416.193     162.185     232.814
  O     -416.416     162.754     238.327
  O     -414.118     163.858     238.507
  H     -417.301     166.703     232.801
  H     -413.934     162.976     238.882
  H     -416.703     160.113     232.745
  H     -415.427     162.097     233.568
  H     -415.596     165.313     231.984
  H     -416.915     164.571     234.657
  H     -415.640     166.390     235.651
  H     -413.298     165.698     234.309
  H     -419.309     160.580     230.120
  H     -413.160     163.570     235.571
  H     -418.559     159.407     231.168
  H     -413.615     164.931     236.588
  P     -415.052     168.731     234.450
  C     -416.609     169.952     232.825
  O     -415.275     169.731     233.225
  O     -413.885     169.060     235.324
  O     -416.434     168.830     235.263
  H     -416.392     169.580     235.885
  H     -416.649     170.803     232.136
  H     -417.243     170.171     233.689
  H     -416.994     169.057     232.313
  H     -416.234     167.059     238.967
  H     -414.712     166.215     239.119
  H     -416.135     165.602     239.927

 3  4  5  6  7  8  9  10  11  12  13  23  27  28  29  30  32 0
 6-311+G(2d,p)
 ****
 34  35 0
 6-311+G(2d,p)
 ****
 1  2  14  15  16  17  18  19  20  21  22  24  25  26 0
 3-21G
 ****
 31  33  36  37  38  39  40  41  42  43  44  45  46 0
 3-21G
 ****


