%nproc=1
%NoSave
%Mem=1900MB
#P OB98/GEN NMR

erre ene a

0 1
  C     -130.239     205.318     139.648
  O     -128.988     205.999     139.775
  P     -128.086     205.738     141.078
  C     -126.702     203.672     140.423
  O     -126.693     205.080     140.621
  C     -125.526     203.196     139.560
  O     -125.438     203.967     138.329
  C     -124.157     203.284     140.249
  O     -123.384     202.162     139.800
  C     -123.597     204.580     139.691
  O     -122.188     204.679     139.852
  C     -124.100     204.499     138.247
  N     -124.072     205.786     137.570
  C     -123.236     205.909     136.461
  O     -122.482     204.983     136.152
  N     -123.251     207.086     135.750
  C     -123.927     208.096     136.202
  N     -123.935     209.240     135.461
  C     -124.679     208.062     137.473
  C     -124.728     206.880     138.084
  O     -128.776     205.034     142.203
  O     -127.650     207.221     141.511
  H     -121.754     203.985     139.313
  H     -127.596     207.261     142.488
  H     -125.158     208.951     137.851
  H     -125.256     206.748     139.016
  H     -123.500     203.784     137.664
  H     -124.054     205.433     140.210
  H     -124.219     203.264     141.344
  H     -125.720     202.152     139.271
  H     -123.395     209.257     134.604
  H     -127.643     203.385     139.937
  H     -124.479     210.054     135.720
  H     -126.700     203.172     141.400
  P     -122.986     201.022     140.859
  C     -125.276     199.833     141.199
  O     -123.979     199.781     140.638
  O     -123.537     201.647     142.234
  O     -121.528     200.715     140.981
  H     -123.030     201.264     142.980
  H     -125.891     199.061     140.724
  H     -125.747     200.803     141.023
  H     -125.226     199.634     142.275
  H     -130.709     205.603     138.730
  H     -130.873     205.580     140.469
  H     -130.072     204.261     139.650

 3  4  5  6  7  8  9  10  11  12  13  23  27  28  29  30  32 0
 6-311+G(2d,p)
 ****
 34  35 0
 6-311+G(2d,p)
 ****
 1  2  14  15  16  17  18  19  20  21  22  24  25  26 0
 3-21G
 ****
 31  33  36  37  38  39  40  41  42  43  44  45  46 0
 3-21G
 ****


