%nproc=1
%NoSave
%Mem=1900MB
#P OB98/GEN NMR

erre ene a

0 1
  C      332.149     -34.660      -0.446
  O      332.089     -34.525      -1.851
  H      331.409     -35.388      -0.099
  H      333.146     -35.009      -0.170
  H      331.967     -33.691       0.033
  P      330.663     -34.119      -2.468
  C      331.016     -35.106      -4.841
  O      330.331     -35.212      -3.598
  C      330.811     -36.374      -5.661
  O      331.359     -37.515      -4.963
  C      329.354     -36.730      -5.934
  O      328.802     -35.957      -6.990
  C      329.491     -38.196      -6.326
  O      329.907     -38.292      -7.707
  C      330.619     -38.684      -5.407
  N      329.818     -43.316      -3.326
  C      330.316     -42.940      -4.530
  N      330.489     -41.691      -5.019
  C      330.107     -40.771      -4.118
  C      329.587     -40.999      -2.854
  C      329.439     -42.345      -2.466
  N      328.921     -42.720      -1.242
  N      329.323     -39.815      -2.205
  C      329.676     -38.879      -3.066
  N      330.153     -39.406      -4.238
  O      330.983     -32.797      -3.314
  O      329.578     -33.882      -1.469
  H      330.497     -37.537      -7.876
  H      330.222     -32.187      -3.252
  H      330.618     -43.749      -5.188
  H      329.614     -37.811      -2.879
  H      331.329     -39.325      -5.942
  H      328.558     -38.759      -6.228
  H      328.749     -36.655      -5.023
  H      331.365     -36.259      -6.604
  H      332.083     -34.965      -4.656
  H      329.022     -43.675      -0.943
  H      328.643     -41.986      -0.595
  H      330.628     -34.238      -5.384
  P      327.710     -34.844      -6.600
  C      328.002     -34.184      -9.092
  O      327.110     -34.322      -7.996
  O      328.607     -33.611      -6.103
  O      326.719     -35.259      -5.564
  H      328.094     -33.050      -5.488
  H      327.465     -33.830      -9.947
  H      328.442     -35.133      -9.315
  H      328.771     -33.484      -8.840

 6  7  8  9  10  11  12  13  14  15  25  28  32  33  34  35 0
 6-311+G(2d,p)
 ****
 36  39  40 0
 6-311+G(2d,p)
 ****
 1  2  3  4  5  16  17  18  19  20  21  22  23  24 0
 3-21G
 ****
 26  27  29  30  31  37  38  41  42  43  44  45  46  47  48 0
 3-21G
 ****


