%nproc=1
%NoSave
%Mem=1900MB
#P OB98/GEN NMR

erre ene a

0 1
  C     -381.021    -365.578     -81.539
  O     -381.394    -366.154     -80.299
  H     -381.923    -365.283     -82.078
  H     -380.471    -366.310     -82.143
  H     -380.403    -364.693     -81.372
  P     -380.200    -366.710     -79.382
  C     -379.648    -364.410     -78.320
  O     -379.200    -365.475     -79.146
  C     -378.790    -364.316     -77.062
  O     -377.392    -364.187     -77.401
  C     -379.131    -363.139     -76.157
  O     -380.223    -363.454     -75.305
  C     -377.825    -362.960     -75.393
  O     -377.717    -363.922     -74.320
  C     -376.780    -363.244     -76.481
  N     -373.944    -359.072     -76.187
  C     -374.249    -360.008     -75.223
  N     -373.749    -359.797     -73.986
  N     -374.994    -361.065     -75.447
  C     -375.472    -361.124     -76.706
  C     -375.245    -360.255     -77.753
  C     -374.377    -359.119     -77.509
  O     -374.006    -358.301     -78.342
  N     -375.897    -360.663     -78.894
  C     -376.541    -361.757     -78.524
  N     -376.319    -362.070     -77.208
  O     -379.379    -367.663     -80.376
  O     -380.621    -367.445     -78.157
  H     -376.854    -363.816     -73.882
  H     -379.066    -368.442     -79.876
  H     -373.341    -358.297     -75.972
  H     -377.170    -362.359     -79.175
  H     -375.884    -363.727     -76.070
  H     -377.757    -361.972     -74.931
  H     -373.430    -358.882     -73.690
  H     -379.334    -362.231     -76.741
  H     -374.032    -360.448     -73.264
  H     -378.901    -365.264     -76.517
  H     -380.690    -364.594     -78.036
  H     -379.588    -363.469     -78.876
  P     -381.151    -362.251     -74.791
  C     -382.176    -361.747     -77.128
  O     -381.416    -361.262     -76.030
  O     -380.162    -361.412     -73.842
  O     -382.370    -362.680     -74.043
  H     -380.385    -361.572     -72.904
  H     -382.265    -360.979     -77.867
  H     -383.150    -362.031     -76.789
  H     -381.685    -362.597     -77.554

 6  7  8  9  10  11  12  13  14  15  26  29  33  34 0
 6-311+G(2d,p)
 ****
 36  38  39  40  41 0
 6-311+G(2d,p)
 ****
 1  2  3  4  5  16  17  18  19  20  21  22  23  24  25 0
 3-21G
 ****
 27  28  30  31  32  35  37  42  43  44  45  46  47 0
 3-21G
 ****
 48  49 0
 3-21G
 ****


