%nproc=1
%NoSave
%Mem=1900MB
#P OB98/GEN NMR

erre ene a

0 1
  C     -594.444     268.836     459.352
  O     -595.348     269.784     459.922
  P     -594.864     271.311     460.005
  C     -597.286     272.191     460.483
  O     -595.943     272.056     460.928
  C     -598.036     273.201     461.350
  O     -598.274     272.658     462.673
  C     -597.276     274.504     461.577
  O     -597.299     275.325     460.426
  C     -598.023     275.059     462.782
  O     -599.247     275.695     462.364
  C     -598.350     273.780     463.578
  N     -597.481     273.586     464.739
  C     -598.051     273.900     465.975
  O     -599.195     274.336     466.104
  N     -597.245     273.718     467.065
  C     -595.953     273.285     467.040
  O     -595.276     273.121     468.054
  C     -595.388     273.023     465.704
  C     -596.170     273.177     464.634
  O     -595.190     271.818     458.528
  O     -593.441     271.451     460.432
  H     -595.988     271.412     458.147
  H     -599.759     275.021     461.877
  H     -597.640     273.919     467.974
  H     -594.352     272.703     465.643
  H     -595.779     272.997     463.634
  H     -599.390     273.810     463.936
  H     -597.436     275.806     463.336
  H     -596.242     274.290     461.860
  H     -599.005     273.403     460.884
  H     -597.801     271.224     460.540
  H     -597.283     272.501     459.435
  P     -595.875     275.771     459.825
  C     -596.671     275.727     457.330
  O     -596.185     276.482     458.419
  O     -595.253     274.354     459.425
  O     -595.050     276.564     460.780
  H     -595.882     273.775     458.969
  H     -597.139     276.407     456.610
  H     -597.425     275.001     457.655
  H     -595.842     275.205     456.840
  H     -594.893     267.865     459.360
  H     -593.540     268.816     459.925
  H     -594.221     269.117     458.344

 3  4  5  6  7  8  9  10  11  12  13  24  28  29  30  31  32 0
 6-311+G(2d,p)
 ****
 33  34 0
 6-311+G(2d,p)
 ****
 1  2  14  15  16  17  18  19  20  21  22  23  25  26  27 0
 3-21G
 ****
 35  36  37  38  39  40  41  42  43  44  45 0
 3-21G
 ****


