%nproc=1
%NoSave
%Mem=1900MB
#P OB98/GEN NMR

erre ene a

0 1
  C      -21.362     176.388    -130.775
  O      -20.998     177.316    -129.774
  H      -22.004     175.624    -130.330
  H      -20.465     175.904    -131.169
  H      -21.907     176.881    -131.585
  P      -20.315     178.683    -130.258
  C      -22.082     179.567    -131.935
  O      -21.506     179.692    -130.645
  C      -23.180     180.615    -132.132
  O      -24.405     180.125    -131.524
  C      -22.857     181.975    -131.497
  O      -23.338     183.012    -132.359
  C      -23.664     181.965    -130.211
  O      -23.979     183.278    -129.751
  C      -24.880     181.142    -130.624
  N      -28.621     181.741    -127.298
  C      -28.286     182.490    -128.411
  N      -29.061     183.566    -128.672
  N      -27.281     182.208    -129.197
  C      -26.616     181.084    -128.832
  C      -26.845     180.262    -127.753
  C      -27.945     180.601    -126.875
  O      -28.276     179.991    -125.863
  N      -25.931     179.239    -127.706
  C      -25.152     179.444    -128.753
  N      -25.531     180.546    -129.469
  O      -19.680     178.292    -131.675
  O      -19.286     179.246    -129.336
  H      -24.486     183.184    -128.915
  H      -18.708     178.360    -131.631
  H      -29.397     182.011    -126.719
  H      -24.302     178.835    -129.029
  H      -25.634     181.742    -131.148
  H      -23.097     181.456    -129.423
  H      -29.879     183.812    -128.140
  H      -21.792     182.121    -131.314
  H      -28.858     184.109    -129.507
  H      -23.376     180.719    -133.205
  H      -22.513     178.566    -132.036
  H      -21.304     179.699    -132.695
  P      -22.235     183.861    -133.160
  C      -20.787     182.032    -134.288
  O      -21.793     183.022    -134.457
  O      -20.953     183.785    -132.204
  O      -22.637     185.275    -133.422
  H      -20.804     184.651    -131.779
  H      -20.594     181.556    -135.227
  H      -21.120     181.302    -133.580
  H      -19.890     182.493    -133.930

 6  7  8  9  10  11  12  13  14  15  26  29  33  34 0
 6-311+G(2d,p)
 ****
 36  38  39  40  41 0
 6-311+G(2d,p)
 ****
 1  2  3  4  5  16  17  18  19  20  21  22  23  24  25 0
 3-21G
 ****
 27  28  30  31  32  35  37  42  43  44  45  46  47 0
 3-21G
 ****
 48  49 0
 3-21G
 ****


