%nproc=1
%NoSave
%Mem=1900MB
#P OB98/GEN NMR

erre ene a

0 1
  C      -79.502      47.065      84.086
  O      -78.606      47.720      84.958
  P      -78.604      49.301      85.188
  C      -78.426      50.933      87.202
  O      -78.420      49.580      86.761
  C      -77.651      51.138      88.513
  O      -78.305      50.415      89.575
  C      -76.243      50.549      88.391
  O      -75.206      51.299      87.792
  C      -75.922      50.002      89.776
  O      -75.121      50.899      90.548
  C      -77.300      49.828      90.417
  N      -76.177      45.583      92.951
  C      -75.747      46.875      93.183
  N      -74.749      47.011      94.084
  N      -76.235      47.922      92.572
  C      -77.159      47.615      91.631
  C      -77.675      46.378      91.321
  C      -77.156      45.234      92.033
  O      -77.451      44.065      91.797
  N      -78.543      46.438      90.262
  C      -78.523      47.705      89.901
  N      -77.668      48.450      90.677
  O      -79.623      50.092      84.435
  O      -77.153      49.703      84.603
  H      -75.097      50.567      91.463
  H      -77.237      50.587      84.196
  H      -75.707      44.806      93.397
  H      -79.079      48.124      89.071
  H      -77.350      50.357      91.377
  H      -75.353      49.068      89.701
  H      -74.252      46.217      94.463
  H      -76.328      49.661      87.752
  H      -74.294      47.914      94.155
  H      -77.664      52.189      88.816
  H      -79.471      51.235      87.319
  H      -77.992      51.570      86.427
  P      -73.890      50.716      87.096
  C      -72.534      51.114      84.964
  O      -73.570      51.599      85.800
  O      -74.361      49.320      86.467
  O      -72.732      50.506      88.016
  H      -73.588      48.740      86.337
  H      -72.199      51.920      84.307
  H      -72.914      50.291      84.352
  H      -71.684      50.762      85.557
  H      -79.309      46.013      84.101
  H      -79.369      47.438      83.092
  H      -80.507      47.248      84.404

 3  4  5  6  7  8  9  10  11  12  23  26  30  31 0
 6-311+G(2d,p)
 ****
 33  35  36  37  38 0
 6-311+G(2d,p)
 ****
 1  2  13  14  15  16  17  18  19  20  21  22  24  25 0
 3-21G
 ****
 27  28  29  32  34  39  40  41  42  43  44  45  46  47  48  49 0
 3-21G
 ****


