%nproc=1
%NoSave
%Mem=1900MB
#P OB98/GEN NMR

erre ene a

0 1
  C      142.250     -15.469      85.556
  O      143.341     -15.303      86.437
  H      142.600     -15.988      84.661
  H      141.843     -14.499      85.262
  H      141.469     -16.074      86.027
  P      143.111     -14.505      87.807
  C      144.060     -16.444      89.221
  O      142.938     -15.608      88.960
  C      143.871     -17.181      90.552
  O      144.203     -16.256      91.617
  C      142.426     -17.658      90.759
  O      142.335     -19.046      91.070
  C      141.874     -16.669      91.778
  O      140.816     -17.166      92.570
  C      143.120     -16.251      92.566
  N      143.004     -14.943      93.208
  C      142.580     -14.919      94.533
  O      142.319     -15.909      95.212
  N      142.466     -13.672      95.094
  C      142.719     -12.486      94.475
  O      142.605     -11.400      95.031
  C      143.142     -12.576      93.070
  C      143.262     -13.782      92.508
  O      142.046     -13.462      87.776
  O      144.545     -13.870      88.130
  H      140.092     -17.433      91.966
  H      144.542     -12.923      87.898
  H      142.170     -13.643      96.057
  H      143.342     -11.653      92.544
  H      143.574     -13.886      91.474
  H      143.345     -16.982      93.343
  H      141.486     -15.798      91.235
  H      141.849     -17.570      89.832
  H      144.584     -18.011      90.600
  H      144.951     -15.811      89.261
  H      144.174     -17.171      88.409
  P      141.398     -20.088      90.307
  C      143.585     -21.076      89.253
  O      142.226     -20.701      89.084
  O      140.013     -19.618      90.017
  O      141.288     -21.318      91.346
  H      140.398     -21.706      91.224
  H      143.966     -21.462      88.331
  H      143.656     -21.828      90.011
  H      144.157     -20.220      89.545

 6  7  8  9  10  11  12  13  14  15  16  26  31  32  33  34  35 0
 6-311+G(2d,p)
 ****
 36  37 0
 6-311+G(2d,p)
 ****
 1  2  3  4  5  17  18  19  20  21  22  23  24  25 0
 3-21G
 ****
 27  28  29  30  38  39  40  41  42  43  44  45 0
 3-21G
 ****


