%nproc=1
%NoSave
%Mem=1900MB
#P OB98/GEN NMR

erre ene a

0 1
  C     -246.347    -917.731    -894.160
  O     -245.800    -918.983    -894.510
  P     -244.691    -919.628    -893.530
  C     -243.640    -921.996    -893.270
  O     -244.716    -921.213    -893.790
  C     -243.801    -923.444    -893.690
  O     -244.835    -924.092    -892.940
  C     -244.201    -923.627    -895.150
  O     -243.092    -923.524    -896.050
  C     -244.723    -925.068    -895.160
  O     -243.629    -925.995    -895.200
  C     -245.430    -925.135    -893.770
  N     -249.934    -927.388    -894.330
  C     -248.689    -927.947    -894.070
  N     -248.618    -929.277    -894.040
  N     -247.601    -927.244    -893.890
  C     -247.800    -925.899    -893.970
  C     -249.016    -925.242    -894.220
  C     -250.197    -926.006    -894.420
  O     -251.315    -925.612    -894.700
  N     -248.825    -923.861    -894.210
  C     -247.523    -923.705    -893.990
  N     -246.888    -924.902    -893.870
  O     -245.367    -919.491    -892.070
  O     -243.347    -918.976    -893.580
  H     -243.340    -926.037    -896.120
  H     -244.691    -919.586    -891.390
  H     -250.724    -927.972    -894.460
  H     -247.037    -922.749    -893.900
  H     -245.260    -926.107    -893.270
  H     -245.363    -925.287    -895.990
  H     -249.435    -929.882    -894.230
  H     -245.020    -922.955    -895.450
  H     -247.705    -929.732    -893.910
  H     -242.831    -923.986    -893.500
  H     -243.635    -921.935    -892.160
  H     -242.695    -921.590    -893.620
  P     -243.414    -923.079    -897.550
  C     -241.889    -922.158    -899.460
  O     -242.019    -922.411    -898.090
  O     -244.392    -921.810    -897.360
  O     -244.017    -924.131    -898.390
  H     -244.948    -921.704    -898.140
  H     -241.016    -921.506    -899.610
  H     -242.791    -921.670    -899.880
  H     -241.689    -923.095    -900.000
  H     -247.062    -917.435    -894.899
  H     -245.565    -917.002    -894.108
  H     -246.829    -917.806    -893.207

 3  4  5  6  7  8  9  10  11  12  23  26  30  31 0
 6-311+G(2d,p)
 ****
 33  35  36  37  38 0
 6-311+G(2d,p)
 ****
 1  2  13  14  15  16  17  18  19  20  21  22  24  25 0
 3-21G
 ****
 27  28  29  32  34  39  40  41  42  43  44  45  46  47  48  49 0
 3-21G
 ****


