%nproc=1
%NoSave
%Mem=1900MB
#P OB98/GEN NMR

erre ene a

0 1
  C      149.328    -153.332     -99.943
  O      150.223    -152.624    -100.776
  H      149.467    -154.402    -100.113
  H      148.293    -153.072    -100.180
  H      149.537    -153.116     -98.892
  P      150.135    -151.021    -100.800
  C      148.281    -149.441    -101.686
  O      148.594    -150.715    -101.143
  C      147.485    -149.600    -102.979
  O      148.230    -150.355    -103.958
  C      146.165    -150.353    -102.832
  O      145.148    -149.589    -102.204
  C      145.861    -150.639    -104.293
  O      145.377    -149.441    -104.929
  C      147.265    -151.018    -104.824
  N      147.499    -152.459    -104.843
  C      148.487    -152.926    -105.718
  O      149.115    -152.140    -106.426
  N      148.717    -154.277    -105.798
  C      148.008    -155.094    -105.084
  N      148.242    -156.428    -105.238
  C      146.970    -154.648    -104.135
  C      146.764    -153.334    -104.069
  O      151.133    -150.317    -101.663
  O      150.212    -150.594     -99.259
  H      145.241    -149.652    -105.869
  H      150.173    -149.609     -99.221
  H      146.401    -155.371    -103.570
  H      146.006    -152.929    -103.409
  H      147.419    -150.622    -105.835
  H      145.099    -151.410    -104.433
  H      146.315    -151.304    -102.314
  H      147.333    -148.596    -103.398
  H      148.931    -156.699    -105.927
  H      149.219    -148.908    -101.865
  H      147.565    -157.121    -104.939
  H      147.676    -148.868    -100.977
  P      144.055    -150.372    -101.327
  C      141.711    -151.409    -101.799
  O      142.858    -150.760    -102.324
  O      143.431    -149.213    -100.420
  O      144.572    -151.519    -100.518
  H      143.879    -149.165     -99.554
  H      141.014    -151.596    -102.589
  H      141.254    -150.784    -101.061
  H      142.000    -152.337    -101.351

 6  7  8  9  10  11  12  13  14  15  16  26  30  31  32  33  35 0
 6-311+G(2d,p)
 ****
 37  38 0
 6-311+G(2d,p)
 ****
 1  2  3  4  5  17  18  19  20  21  22  23  24  25 0
 3-21G
 ****
 27  28  29  34  36  39  40  41  42  43  44  45  46 0
 3-21G
 ****


