%nproc=1
%NoSave
%Mem=1900MB
#P OB98/GEN NMR

erre ene a

0 1
  C     -142.003      65.233     -27.203
  O     -141.570      63.954     -26.788
  H     -141.229      65.962     -26.948
  H     -142.929      65.513     -26.692
  H     -142.153      65.249     -28.286
  P     -142.585      62.718     -26.944
  C     -143.056      62.748     -24.396
  O     -143.595      62.878     -25.703
  C     -144.176      62.771     -23.358
  O     -144.968      63.970     -23.477
  C     -145.181      61.629     -23.474
  O     -144.677      60.384     -23.020
  C     -146.293      62.165     -22.587
  O     -145.923      62.010     -21.204
  C     -146.306      63.660     -22.992
  N     -147.305      63.965     -24.015
  C     -148.541      64.445     -23.560
  O     -148.750      64.595     -22.356
  N     -149.526      64.712     -24.481
  C     -149.305      64.498     -25.740
  N     -150.331      64.734     -26.606
  C     -148.014      64.011     -26.265
  C     -147.071      63.762     -25.357
  O     -141.963      61.367     -27.094
  O     -143.522      63.127     -28.176
  H     -145.922      61.054     -21.014
  H     -144.162      62.387     -28.322
  H     -147.886      63.843     -27.323
  H     -146.103      63.385     -25.662
  H     -146.486      64.297     -22.118
  H     -147.247      61.647     -22.729
  H     -145.561      61.545     -24.498
  H     -143.705      62.794     -22.366
  H     -151.214      65.027     -26.208
  H     -142.353      63.571     -24.233
  H     -150.334      64.337     -27.541
  H     -142.520      61.798     -24.303
  P     -144.920      59.092     -23.944
  C     -146.828      58.114     -22.463
  O     -146.446      58.647     -23.722
  O     -144.081      57.955     -23.195
  O     -144.532      59.241     -25.382
  H     -143.183      57.877     -23.571
  H     -147.870      57.869     -22.480
  H     -146.645      58.839     -21.698
  H     -146.258      57.231     -22.261

 6  7  8  9  10  11  12  13  14  15  16  26  30  31  32  33  35 0
 6-311+G(2d,p)
 ****
 37  38 0
 6-311+G(2d,p)
 ****
 1  2  3  4  5  17  18  19  20  21  22  23  24  25 0
 3-21G
 ****
 27  28  29  34  36  39  40  41  42  43  44  45  46 0
 3-21G
 ****


