%nproc=1
%NoSave
%Mem=1900MB
#P OB98/GEN NMR

erre ene a

0 1
  C       45.872      75.575     145.562
  O       46.352      75.974     146.832
  H       46.473      74.731     145.213
  H       45.965      76.393     144.843
  H       44.828      75.256     145.633
  P       45.661      77.230     147.549
  C       43.227      78.022     147.903
  O       44.095      77.127     147.215
  C       41.955      78.254     147.092
  O       42.253      78.997     145.893
  C       41.253      76.975     146.642
  O       40.460      76.445     147.691
  C       40.416      77.507     145.491
  O       39.268      78.207     146.010
  C       41.387      78.505     144.832
  N       41.450      76.418     140.204
  C       40.378      76.740     141.015
  N       39.152      76.434     140.541
  N       40.499      77.299     142.193
  C       41.786      77.482     142.569
  C       42.930      77.189     141.860
  C       42.780      76.632     140.531
  O       43.703      76.356     139.769
  N       44.059      77.429     142.604
  C       43.598      77.917     143.740
  N       42.222      77.960     143.774
  O       46.261      78.569     147.251
  O       45.724      76.876     149.109
  H       38.609      78.250     145.292
  H       46.529      77.241     149.520
  H       41.295      75.982     139.310
  H       44.210      78.254     144.567
  H       40.862      79.369     144.408
  H       40.045      76.716     144.836
  H       39.003      75.872     139.717
  H       41.967      76.240     146.254
  H       38.360      76.611     141.148
  H       41.283      78.880     147.696
  H       43.768      78.963     148.044
  H       42.965      77.618     148.887
  P       40.059      74.888     147.739
  C       41.457      72.789     148.316
  O       41.453      74.093     147.763
  O       39.113      74.453     146.673
  O       39.522      74.664     149.226
  H       38.564      74.890     149.327
  H       42.446      72.383     148.266
  H       40.787      72.165     147.763
  H       41.141      72.834     149.337

 6  7  8  9  10  11  12  13  14  15  26  29  33  34 0
 6-311+G(2d,p)
 ****
 36  38  39  40  41 0
 6-311+G(2d,p)
 ****
 1  2  3  4  5  16  17  18  19  20  21  22  23  24  25 0
 3-21G
 ****
 27  28  30  31  32  35  37  42  43  44  45  46  47 0
 3-21G
 ****
 48  49 0
 3-21G
 ****


