%nproc=1
%NoSave
%Mem=1900MB
#P OB98/GEN NMR

erre ene a

0 1
  C      558.848    -917.493      48.900
  O      559.903    -918.396      49.168
  H      558.298    -917.847      48.022
  H      559.255    -916.504      48.680
  H      558.161    -917.438      49.747
  P      560.751    -918.167      50.509
  C      562.964    -919.127      51.476
  O      562.111    -919.011      50.347
  C      564.131    -920.071      51.168
  O      563.606    -921.419      50.967
  C      564.922    -919.686      49.913
  O      566.310    -919.934      50.152
  C      564.402    -920.645      48.851
  O      565.344    -920.859      47.800
  C      564.076    -921.881      49.691
  N      563.081    -922.730      49.028
  C      563.511    -924.015      48.643
  O      564.666    -924.374      48.863
  N      562.627    -924.827      47.978
  C      561.460    -924.378      47.639
  N      560.646    -925.222      46.957
  C      560.993    -923.002      47.965
  C      561.848    -922.251      48.661
  O      559.940    -918.998      51.611
  O      560.955    -916.741      50.907
  H      565.968    -921.564      48.083
  H      560.010    -918.585      52.493
  H      560.022    -922.664      47.637
  H      561.591    -921.230      48.934
  H      564.993    -922.478      49.868
  H      563.486    -920.232      48.406
  H      564.784    -918.637      49.623
  H      564.786    -920.110      52.053
  H      560.998    -926.145      46.731
  H      562.388    -919.538      52.315
  H      559.729    -924.966      46.596
  H      563.341    -918.132      51.754
  P      567.187    -918.699      50.652
  C      569.228    -918.765      52.268
  O      568.649    -919.234      51.059
  O      566.525    -918.309      52.055
  O      567.196    -917.534      49.691
  H      566.026    -917.467      51.964
  H      570.193    -919.209      52.397
  H      568.599    -919.032      53.092
  H      569.328    -917.700      52.226

 6  7  8  9  10  11  12  13  14  15  16  26  30  31  32  33  35 0
 6-311+G(2d,p)
 ****
 37  38 0
 6-311+G(2d,p)
 ****
 1  2  3  4  5  17  18  19  20  21  22  23  24  25 0
 3-21G
 ****
 27  28  29  34  36  39  40  41  42  43  44  45  46 0
 3-21G
 ****


