%nproc=1
%NoSave
%Mem=1900MB
#P OB98/GEN NMR

erre ene a

0 1
  C     -195.541    -899.414     -95.663
  O     -195.260    -898.034     -95.995
  P     -196.416    -896.944     -95.881
  C     -195.412    -895.954     -93.670
  O     -196.547    -896.494     -94.342
  C     -195.793    -894.704     -92.869
  O     -196.101    -893.614     -93.769
  C     -197.044    -894.884     -92.012
  O     -196.765    -895.604     -90.825
  C     -197.436    -893.424     -91.755
  O     -196.649    -892.864     -90.671
  C     -197.049    -892.754     -93.091
  N     -198.226    -892.464     -93.919
  C     -198.526    -891.114     -94.124
  O     -197.872    -890.204     -93.625
  N     -199.605    -890.874     -94.947
  C     -200.438    -891.804     -95.481
  O     -201.393    -891.514     -96.176
  C     -200.123    -893.214     -95.146
  C     -199.064    -893.474     -94.396
  O     -197.739    -897.834     -96.062
  O     -196.378    -895.824     -96.880
  H     -195.722    -892.864     -90.953
  H     -198.462    -897.274     -96.438
  H     -199.809    -889.894     -95.126
  H     -200.776    -893.984     -95.520
  H     -198.820    -894.494     -94.130
  H     -196.518    -891.814     -92.916
  H     -198.486    -893.334     -91.483
  H     -197.830    -895.374     -92.581
  H     -194.933    -894.404     -92.275
  H     -194.631    -895.704     -94.405
  H     -194.991    -896.724     -93.001
  P     -197.287    -897.114     -90.760
  C     -194.941    -898.014     -90.049
  O     -196.001    -898.044     -90.973
  O     -198.120    -897.204     -92.123
  O     -198.095    -897.384     -89.514
  H     -197.720    -896.664     -92.842
  H     -195.280    -897.854     -89.033
  H     -194.228    -897.224     -90.329
  H     -194.424    -898.974     -90.108
  H     -194.656    -900.000     -95.796
  H     -196.314    -899.784     -96.303
  H     -195.861    -899.477     -94.644

 3  4  5  6  7  8  9  10  11  12  13  23  28  29  30  31  32 0
 6-311+G(2d,p)
 ****
 33  34 0
 6-311+G(2d,p)
 ****
 1  2  14  15  16  17  18  19  20  21  22  24  25  26 0
 3-21G
 ****
 27  35  36  37  38  39  40  41  42  43  44  45 0
 3-21G
 ****


