%nproc=1
%NoSave
%Mem=1900MB
#P OB98/GEN NMR

erre ene a

0 1
  C      613.179     -85.381     532.266
  O      613.704     -86.442     531.492
  H      612.186     -85.136     531.892
  H      613.817     -84.498     532.180
  H      613.094     -85.680     533.316
  P      615.170     -86.997     531.842
  C      616.395     -85.739     529.934
  O      615.941     -86.989     530.427
  C      617.146     -85.929     528.622
  O      618.347     -86.711     528.816
  C      616.380     -86.680     527.540
  O      615.346     -85.918     526.938
  C      617.514     -86.987     526.577
  O      617.861     -85.808     525.842
  C      618.636     -87.392     527.562
  N      618.712     -88.839     527.773
  C      619.643     -89.533     526.987
  O      620.342     -88.943     526.171
  N      619.734     -90.903     527.127
  C      618.954     -91.514     527.959
  N      619.085     -92.868     528.051
  C      617.943     -90.828     528.788
  C      617.884     -89.501     528.652
  O      615.217     -88.289     532.595
  O      615.886     -85.785     532.603
  H      618.001     -85.093     526.492
  H      616.795     -86.078     532.854
  H      617.299     -91.393     529.442
  H      617.160     -88.928     529.216
  H      619.611     -87.032     527.208
  H      617.260     -87.759     525.844
  H      615.981     -87.636     527.928
  H      617.467     -84.938     528.271
  H      619.783     -93.320     527.468
  H      617.039     -85.284     530.693
  H      618.469     -93.443     528.615
  H      615.548     -85.076     529.748
  P      613.907     -85.935     527.659
  C      612.299     -85.731     525.604
  O      612.923     -85.093     526.707
  O      614.128     -84.995     528.928
  O      613.399     -87.295     528.019
  H      614.292     -85.533     529.726
  H      611.684     -85.026     525.085
  H      611.694     -86.541     525.956
  H      613.048     -86.108     524.939

 6  7  8  9  10  11  12  13  14  15  16  26  30  31  32  33  35 0
 6-311+G(2d,p)
 ****
 37  38 0
 6-311+G(2d,p)
 ****
 1  2  3  4  5  17  18  19  20  21  22  23  24  25 0
 3-21G
 ****
 27  28  29  34  36  39  40  41  42  43  44  45  46 0
 3-21G
 ****


