%nproc=1
%NoSave
%Mem=1900MB
#P OB98/GEN NMR

erre ene a

0 1
  C     -261.767     442.037    -321.739
  O     -261.657     441.864    -323.140
  H     -260.946     441.524    -321.232
  H     -261.712     443.104    -321.513
  H     -262.726     441.648    -321.384
  P     -261.744     440.358    -323.686
  C     -259.817     438.949    -324.707
  O     -260.250     439.777    -323.637
  C     -258.323     439.135    -324.949
  O     -258.067     440.447    -325.492
  C     -257.460     439.033    -323.697
  O     -257.217     437.683    -323.330
  C     -256.184     439.718    -324.176
  O     -255.415     438.804    -324.978
  C     -256.741     440.849    -325.053
  N     -254.165     444.988    -323.494
  C     -253.796     443.918    -324.235
  N     -254.545     442.869    -324.630
  C     -255.806     442.997    -324.188
  C     -256.339     444.037    -323.445
  C     -255.455     445.068    -323.085
  N     -255.833     446.121    -322.267
  N     -257.677     443.807    -323.173
  C     -257.937     442.642    -323.727
  N     -256.844     442.119    -324.359
  O     -262.025     440.563    -325.250
  O     -262.789     439.507    -323.042
  H     -254.741     439.336    -325.445
  H     -262.984     440.481    -325.417
  H     -252.759     443.907    -324.554
  H     -258.896     442.143    -323.694
  H     -256.137     441.009    -325.953
  H     -255.544     440.052    -323.354
  H     -257.886     439.608    -322.865
  H     -258.010     438.398    -325.699
  H     -260.367     439.213    -325.618
  H     -255.063     446.505    -321.718
  H     -256.714     445.988    -321.788
  H     -260.035     437.907    -324.454
  P     -257.119     437.338    -321.768
  C     -254.985     436.696    -320.451
  O     -255.599     437.627    -321.330
  O     -257.220     435.741    -321.746
  O     -258.165     437.962    -320.911
  H     -257.960     435.468    -321.169
  H     -253.983     437.008    -320.244
  H     -254.970     435.729    -320.909
  H     -255.540     436.649    -319.537

 6  7  8  9  10  11  12  13  14  15  25  28  32  33  34  35 0
 6-311+G(2d,p)
 ****
 36  39  40 0
 6-311+G(2d,p)
 ****
 1  2  3  4  5  16  17  18  19  20  21  22  23  24 0
 3-21G
 ****
 26  27  29  30  31  37  38  41  42  43  44  45  46  47  48 0
 3-21G
 ****


