%nproc=1
%NoSave
%Mem=1900MB
#P OB98/GEN NMR

erre ene a

0 1
  C       52.345      57.429    -177.230
  O       52.066      57.654    -178.600
  H       51.475      57.730    -176.640
  H       53.205      58.030    -176.924
  H       52.547      56.369    -177.050
  P       53.122      57.062    -179.649
  C       55.672      57.434    -180.141
  O       54.534      57.778    -179.361
  C       56.918      58.113    -179.578
  O       57.236      57.594    -178.271
  C       58.184      57.862    -180.382
  O       58.202      58.567    -181.604
  C       59.244      58.331    -179.394
  O       59.440      59.749    -179.460
  C       58.626      57.925    -178.033
  N       59.356      56.835    -177.414
  C       60.692      57.115    -177.088
  O       61.160      58.232    -177.311
  N       61.462      56.114    -176.555
  C       60.957      54.931    -176.389
  N       61.786      53.974    -175.886
  C       59.557      54.593    -176.720
  C       58.820      55.583    -177.225
  O       52.651      57.725    -181.025
  O       53.202      55.572    -179.683
  H       60.073      59.972    -178.747
  H       52.507      58.684    -180.969
  H       59.182      53.593    -176.550
  H       57.782      55.422    -177.496
  H       58.631      58.778    -177.340
  H       60.214      57.866    -179.593
  H       58.322      56.783    -180.543
  H       56.711      59.188    -179.487
  H       62.752      54.235    -175.724
  H       55.522      57.723    -181.186
  H       61.527      53.004    -175.789
  H       55.782      56.345    -180.109
  P       58.737      57.887    -182.951
  C       60.762      56.391    -183.507
  O       60.250      57.419    -182.665
  O       58.570      58.702    -184.188
  O       57.957      56.487    -182.983
  H       58.123      55.908    -182.217
  H       61.769      56.166    -183.223
  H       60.743      56.721    -184.525
  H       60.158      55.513    -183.406

 6  7  8  9  10  11  12  13  14  15  16  26  30  31  32  33  35 0
 6-311+G(2d,p)
 ****
 37  38 0
 6-311+G(2d,p)
 ****
 1  2  3  4  5  17  18  19  20  21  22  23  24  25 0
 3-21G
 ****
 27  28  29  34  36  39  40  41  42  43  44  45  46 0
 3-21G
 ****


