%nproc=1
%NoSave
%Mem=1900MB
#P OB98/GEN NMR

erre ene a

0 1
  C      222.895    -234.864    -208.040
  O      224.207    -234.406    -207.795
  H      222.934    -235.631    -208.818
  H      222.279    -234.035    -208.395
  H      222.447    -235.295    -207.141
  P      224.507    -233.624    -206.432
  C      225.746    -235.661    -205.441
  O      224.694    -234.720    -205.269
  C      225.992    -236.478    -204.171
  O      226.964    -237.514    -204.424
  C      226.563    -235.627    -203.035
  O      225.608    -234.920    -202.266
  C      227.276    -236.679    -202.188
  O      226.364    -237.302    -201.267
  C      227.759    -237.687    -203.236
  N      232.594    -238.432    -201.767
  C      231.429    -238.671    -201.069
  N      231.571    -239.115    -199.797
  N      230.234    -238.479    -201.570
  C      230.251    -237.948    -202.813
  C      231.341    -237.653    -203.600
  C      232.659    -237.924    -203.054
  O      233.725    -237.722    -203.630
  N      230.960    -237.128    -204.812
  C      229.652    -237.034    -204.728
  N      229.166    -237.547    -203.547
  O      223.095    -232.963    -206.057
  O      225.584    -232.585    -206.512
  H      225.902    -236.601    -200.772
  H      223.234    -232.164    -205.517
  H      233.484    -238.627    -201.340
  H      229.004    -236.632    -205.501
  H      227.604    -238.721    -202.895
  H      228.079    -236.238    -201.589
  H      232.462    -239.166    -199.330
  H      227.316    -234.933    -203.423
  H      230.761    -239.046    -199.174
  H      225.060    -236.976    -203.873
  H      226.640    -235.091    -205.695
  H      225.528    -236.321    -206.283
  P      226.067    -234.105    -200.967
  C      226.738    -231.847    -202.073
  O      227.163    -233.038    -201.449
  O      226.918    -235.187    -200.150
  O      224.955    -233.544    -200.149
  H      226.364    -235.606    -199.468
  H      227.591    -231.254    -202.328
  H      226.109    -231.298    -201.403
  H      226.191    -232.085    -202.961

 6  7  8  9  10  11  12  13  14  15  26  29  33  34 0
 6-311+G(2d,p)
 ****
 36  38  39  40  41 0
 6-311+G(2d,p)
 ****
 1  2  3  4  5  16  17  18  19  20  21  22  23  24  25 0
 3-21G
 ****
 27  28  30  31  32  35  37  42  43  44  45  46  47 0
 3-21G
 ****
 48  49 0
 3-21G
 ****


