%nproc=1
%NoSave
%Mem=1900MB
#P OB98/GEN NMR

erre ene a

0 1
  C      368.285      72.602     146.877
  O      369.580      71.988     146.867
  P      369.708      70.523     147.514
  C      370.777      69.274     145.468
  O      370.950      69.830     146.766
  C      372.071      69.398     144.668
  O      372.356      70.789     144.374
  C      373.307      68.874     145.396
  O      373.332      67.455     145.421
  C      374.417      69.525     144.578
  O      374.660      68.781     143.379
  C      373.792      70.902     144.237
  N      374.327      71.987     145.047
  C      375.658      72.331     144.816
  O      376.368      71.743     143.988
  N      376.157      73.357     145.569
  C      375.481      74.039     146.535
  O      375.977      74.960     147.174
  C      374.089      73.603     146.779
  C      373.584      72.613     146.036
  O      368.419      69.798     146.903
  O      369.777      70.548     149.004
  H      368.216      70.091     145.997
  H      374.803      67.851     143.657
  H      377.112      73.626     145.406
  H      373.532      74.108     147.557
  H      372.567      72.274     146.203
  H      373.983      71.144     143.181
  H      375.364      69.584     145.133
  H      373.325      69.265     146.425
  H      371.941      68.863     143.715
  H      369.974      69.799     144.940
  H      370.475      68.228     145.572
  P      373.933      66.760     146.736
  C      371.630      65.982     147.703
  O      372.886      65.630     147.168
  O      373.721      67.921     147.825
  O      375.347      66.313     146.590
  H      372.844      68.341     147.762
  H      370.951      65.127     147.601
  H      371.196      66.834     147.170
  H      371.734      66.224     148.763
  H      368.344      73.567     146.418
  H      367.948      72.707     147.887
  H      367.596      71.990     146.333

 3  4  5  6  7  8  9  10  11  12  13  24  28  29  30  31  32 0
 6-311+G(2d,p)
 ****
 33  34 0
 6-311+G(2d,p)
 ****
 1  2  14  15  16  17  18  19  20  21  22  23  25  26  27 0
 3-21G
 ****
 35  36  37  38  39  40  41  42  43  44  45 0
 3-21G
 ****


