%nproc=1
%NoSave
%Mem=1900MB
#P OB98/GEN NMR

erre ene a

0 1
  C      -70.191     -10.425      84.920
  O      -69.131      -9.961      85.741
  P      -69.420      -9.065      87.041
  C      -68.552      -6.645      87.015
  O      -69.508      -7.560      86.493
  C      -67.181      -6.911      86.398
  O      -67.340      -7.026      84.964
  C      -66.134      -5.815      86.598
  O      -65.436      -5.883      87.833
  C      -65.173      -6.130      85.459
  O      -64.330      -7.237      85.827
  C      -66.126      -6.541      84.334
  N      -64.334      -3.453      80.671
  C      -63.773      -4.485      81.337
  N      -64.310      -5.247      82.315
  C      -65.579      -4.880      82.556
  C      -66.287      -3.852      81.954
  C      -65.611      -3.117      80.965
  N      -66.195      -2.079      80.271
  N      -67.562      -3.765      82.482
  C      -67.620      -4.732      83.373
  N      -66.451      -5.439      83.449
  O      -68.478      -9.292      88.170
  O      -70.937      -9.399      87.419
  H      -64.911      -7.921      86.213
  H      -71.123      -9.112      88.335
  H      -62.752      -4.732      81.053
  H      -68.482      -4.954      83.985
  H      -65.729      -7.360      83.723
  H      -64.511      -5.295      85.216
  H      -66.565      -4.818      86.440
  H      -66.812      -7.874      86.775
  H      -68.492      -6.790      88.100
  H      -65.681      -1.696      79.493
  H      -67.190      -1.937      80.375
  H      -68.880      -5.620      86.822
  P      -64.825      -4.509      88.406
  C      -62.226      -4.207      88.449
  O      -63.405      -4.335      87.684
  O      -64.806      -4.412      89.891
  O      -65.737      -3.397      87.702
  H      -65.632      -3.323      86.740
  H      -61.363      -4.262      87.779
  H      -62.147      -5.013      89.183
  H      -62.212      -3.240      88.960
  H      -69.790     -11.000      84.112
  H      -70.732      -9.589      84.529
  H      -70.850     -11.036      85.500

 3  4  5  6  7  8  9  10  11  12  22  25  29  30  31  32 0
 6-311+G(2d,p)
 ****
 33  36  37 0
 6-311+G(2d,p)
 ****
 1  2  13  14  15  16  17  18  19  20  21  23  24  26 0
 3-21G
 ****
 27  28  34  35  38  39  40  41  42  43  44  45  46  47  48 0
 3-21G
 ****


