%nproc=1
%NoSave
%Mem=1900MB
#P OB98/GEN NMR

erre ene a

0 1
  C      -85.852     -33.731     -23.256
  O      -86.525     -32.505     -23.461
  P      -85.959     -31.155     -22.812
  C      -88.087     -30.399     -21.586
  O      -86.755     -30.881     -21.448
  C      -88.987     -31.000     -20.510
  O      -88.658     -32.389     -20.281
  C      -88.855     -30.334     -19.149
  O      -89.462     -29.057     -19.120
  C      -89.506     -31.378     -18.250
  O      -90.936     -31.267     -18.294
  C      -89.048     -32.692     -18.918
  N      -87.970     -33.340     -18.189
  C      -88.322     -33.934     -16.972
  O      -89.466     -33.825     -16.532
  N      -87.360     -34.629     -16.282
  C      -86.134     -34.624     -16.703
  N      -85.238     -35.379     -16.012
  C      -85.693     -33.871     -17.896
  C      -86.658     -33.277     -18.596
  O      -85.883     -29.987     -23.737
  O      -84.498     -31.558     -22.291
  H      -83.856     -30.898     -22.614
  H      -91.146     -30.321     -18.167
  H      -84.648     -33.844     -18.165
  H      -86.430     -32.721     -19.499
  H      -89.890     -33.389     -18.998
  H      -89.205     -31.273     -17.203
  H      -87.794     -30.240     -18.887
  H      -90.025     -30.946     -20.865
  H      -85.581     -35.895     -15.211
  H      -88.459     -30.679     -22.576
  H      -84.366     -35.701     -16.423
  H      -88.083     -29.306     -21.518
  P      -88.549     -27.830     -18.636
  C      -90.279     -27.069     -16.866
  O      -88.957     -27.496     -17.124
  O      -89.125     -26.590     -19.469
  O      -87.086     -28.012     -18.875
  H      -88.395     -25.993     -19.715
  H      -90.495     -27.221     -15.805
  H      -91.005     -27.633     -17.457
  H      -90.370     -26.004     -17.095
  H      -86.375     -34.514     -23.763
  H      -85.815     -33.947     -22.209
  H      -84.856     -33.660     -23.641

 3  4  5  6  7  8  9  10  11  12  13  24  27  28  29  30  32 0
 6-311+G(2d,p)
 ****
 34  35 0
 6-311+G(2d,p)
 ****
 1  2  14  15  16  17  18  19  20  21  22  23  25  26 0
 3-21G
 ****
 31  33  36  37  38  39  40  41  42  43  44  45  46 0
 3-21G
 ****


