%nproc=1
%NoSave
%Mem=1900MB
#P OB98/GEN NMR

erre ene a

0 1
  C     -235.969     206.314    -171.342
  O     -237.222     205.699    -171.114
  P     -238.540     206.572    -171.382
  C     -238.651     207.178    -168.847
  O     -238.655     207.639    -170.192
  C     -239.505     208.108    -167.981
  O     -239.227     209.489    -168.300
  C     -241.003     207.935    -168.197
  O     -241.500     206.798    -167.507
  C     -241.547     209.253    -167.660
  O     -241.689     209.210    -166.229
  C     -240.436     210.241    -168.068
  N     -240.800     211.052    -169.228
  C     -242.091     211.575    -169.223
  O     -242.896     211.363    -168.313
  N     -242.439     212.320    -170.315
  C     -241.664     212.544    -171.416
  O     -242.051     213.175    -172.391
  C     -240.319     211.940    -171.379
  C     -239.960     211.229    -170.307
  O     -239.742     205.552    -171.096
  O     -238.627     207.162    -172.749
  H     -240.838     208.880    -165.877
  H     -240.482     205.732    -171.708
  H     -243.359     212.731    -170.319
  H     -239.675     212.097    -172.235
  H     -238.979     210.764    -170.268
  H     -240.211     210.922    -167.233
  H     -242.531     209.493    -168.074
  H     -241.223     207.868    -169.269
  H     -239.246     207.941    -166.928
  H     -237.626     207.163    -168.472
  H     -239.044     206.158    -168.817
  P     -242.717     206.005    -168.191
  C     -244.410     206.838    -166.380
  O     -244.034     206.804    -167.741
  O     -242.723     204.660    -167.322
  O     -242.532     205.804    -169.656
  H     -242.444     204.817    -166.403
  H     -243.537     206.872    -165.723
  H     -245.008     205.953    -166.147
  H     -245.019     207.732    -166.206
  H     -235.185     205.619    -171.124
  H     -235.872     207.171    -170.709
  H     -235.902     206.617    -172.366

 3  4  5  6  7  8  9  10  11  12  13  23  28  29  30  31  32 0
 6-311+G(2d,p)
 ****
 33  34 0
 6-311+G(2d,p)
 ****
 1  2  14  15  16  17  18  19  20  21  22  24  25  26 0
 3-21G
 ****
 27  35  36  37  38  39  40  41  42  43  44  45 0
 3-21G
 ****


