%nproc=1
%NoSave
%Mem=1900MB
#P OB98/GEN NMR

erre ene a

0 1
  C      -47.854    -284.016     -24.758
  O      -47.641    -283.909     -23.365
  H      -47.641    -283.048     -25.220
  H      -48.890    -284.289     -24.976
  H      -47.176    -284.762     -25.185
  P      -48.130    -285.122     -22.431
  C      -45.648    -285.572     -21.876
  O      -46.878    -286.126     -22.340
  C      -45.285    -286.126     -20.497
  O      -45.412    -287.562     -20.489
  C      -43.847    -285.850     -20.086
  O      -43.574    -284.492     -19.815
  C      -43.611    -286.895     -19.004
  O      -44.032    -286.478     -17.709
  C      -44.501    -288.065     -19.491
  N      -43.707    -289.182     -19.994
  C      -43.897    -290.398     -19.345
  O      -44.660    -290.547     -18.391
  N      -43.142    -291.442     -19.805
  C      -42.204    -291.374     -20.792
  O      -41.528    -292.339     -21.131
  C      -42.030    -290.056     -21.423
  C      -42.779    -289.034     -21.001
  O      -49.409    -285.785     -22.843
  O      -48.183    -284.477     -20.969
  H      -44.949    -286.153     -17.797
  H      -48.716    -285.034     -20.354
  H      -43.272    -292.333     -19.355
  H      -41.290    -289.965     -22.207
  H      -42.668    -288.050     -21.450
  H      -45.120    -288.439     -18.666
  H      -42.554    -287.158     -18.926
  H      -43.197    -286.125     -20.922
  H      -45.991    -285.717     -19.765
  H      -45.778    -284.487     -21.806
  H      -44.853    -285.787     -22.596
  P      -42.108    -283.863     -19.877
  C      -42.655    -282.220     -21.814
  O      -41.860    -283.312     -21.366
  O      -41.016    -284.633     -19.207
  O      -42.314    -282.497     -19.042
  H      -41.482    -282.318     -18.562
  H      -42.379    -281.965     -22.816
  H      -42.495    -281.377     -21.175
  H      -43.688    -282.497     -21.788

 6  7  8  9  10  11  12  13  14  15  16  26  31  32  33  34  35 0
 6-311+G(2d,p)
 ****
 36  37 0
 6-311+G(2d,p)
 ****
 1  2  3  4  5  17  18  19  20  21  22  23  24  25 0
 3-21G
 ****
 27  28  29  30  38  39  40  41  42  43  44  45 0
 3-21G
 ****


