%nproc=1
%NoSave
%Mem=1900MB
#P OB98/GEN NMR

erre ene a

0 1
  C       97.590     558.041     390.860
  O       98.405     557.253     391.737
  P       99.022     555.880     391.186
  C       97.044     554.237     391.392
  O       97.844     555.017     390.514
  C       95.815     553.679     390.655
  O       96.222     552.763     389.592
  C       94.879     552.901     391.587
  O       93.509     553.055     391.164
  C       95.277     551.460     391.340
  O       94.244     550.554     391.728
  C       95.574     551.496     389.840
  N       95.643     546.911     387.572
  C       94.641     547.783     387.796
  N       94.700     549.001     388.379
  C       95.960     549.284     388.755
  C       97.086     548.490     388.585
  C       96.891     547.242     387.973
  N       97.912     546.331     387.779
  N       98.207     549.122     389.098
  C       97.762     550.237     389.604
  N       96.416     550.404     389.395
  O       99.878     555.126     392.146
  O       99.871     556.357     389.911
  H       93.402     550.903     391.378
  H      100.722     555.871     389.898
  H       93.661     547.469     387.455
  H       98.353     550.966     390.145
  H       94.656     551.476     389.243
  H       96.179     551.222     391.919
  H       94.952     553.175     392.644
  H       95.287     554.509     390.176
  H       96.725     554.842     392.237
  H       97.658     545.414     387.435
  H       98.813     546.509     388.199
  H       97.660     553.428     391.807
  P       92.707     554.280     391.833
  C       91.545     552.768     393.622
  O       92.417     553.845     393.342
  O       91.526     554.720     391.035
  O       93.847     555.398     391.950
  H       94.674     555.088     392.377
  H       91.583     552.552     394.698
  H       91.844     551.870     393.077
  H       90.523     553.039     393.353
  H       97.258     558.919     391.374
  H       96.742     557.467     390.550
  H       98.162     558.325     390.001

 3  4  5  6  7  8  9  10  11  12  22  25  29  30  31  32 0
 6-311+G(2d,p)
 ****
 33  36  37 0
 6-311+G(2d,p)
 ****
 1  2  13  14  15  16  17  18  19  20  21  23  24  26 0
 3-21G
 ****
 27  28  34  35  38  39  40  41  42  43  44  45  46  47  48 0
 3-21G
 ****


