%nproc=1
%NoSave
%Mem=1900MB
#P OB98/GEN NMR

erre ene a

0 1
  C      328.396    -500.618    -355.744
  O      327.046    -500.413    -356.164
  P      326.755    -499.428    -357.391
  C      327.024    -501.353    -359.081
  O      327.447    -500.047    -358.703
  C      326.523    -501.364    -360.532
  O      327.571    -501.011    -361.459
  C      326.021    -502.723    -360.985
  O      324.760    -503.009    -360.407
  C      326.034    -502.559    -362.489
  O      324.851    -501.891    -362.942
  C      327.273    -501.666    -362.715
  N      328.426    -502.393    -363.226
  C      329.160    -501.748    -364.232
  O      328.803    -500.653    -364.655
  N      330.273    -502.376    -364.729
  C      330.626    -503.537    -364.276
  N      331.733    -504.110    -364.809
  C      329.865    -504.248    -363.227
  C      328.784    -503.631    -362.755
  O      327.033    -497.987    -357.142
  O      325.193    -499.668    -357.675
  H      325.007    -501.641    -363.876
  H      324.803    -498.843    -358.035
  H      330.198    -505.223    -362.883
  H      328.181    -504.086    -361.992
  H      327.046    -500.866    -363.427
  H      326.070    -503.527    -363.012
  H      326.743    -503.506    -360.689
  H      325.716    -500.624    -360.615
  H      332.221    -503.592    -365.535
  H      326.230    -501.688    -358.410
  H      332.120    -504.994    -364.492
  H      327.866    -502.049    -358.952
  P      324.508    -504.490    -359.834
  C      325.276    -504.002    -357.403
  O      325.521    -504.707    -358.608
  O      325.127    -505.423    -360.982
  O      323.081    -504.843    -359.563
  H      324.614    -506.252    -361.046
  H      325.829    -504.493    -356.592
  H      324.210    -504.016    -357.151
  H      325.618    -502.973    -357.495
  H      328.413    -501.299    -354.919
  H      328.822    -499.683    -355.444
  H      328.964    -501.025    -356.554

 3  4  5  6  7  8  9  10  11  12  13  23  27  28  29  30  32 0
 6-311+G(2d,p)
 ****
 34  35 0
 6-311+G(2d,p)
 ****
 1  2  14  15  16  17  18  19  20  21  22  24  25  26 0
 3-21G
 ****
 31  33  36  37  38  39  40  41  42  43  44  45  46 0
 3-21G
 ****


