%nproc=1
%NoSave
%Mem=1900MB
#P OB98/GEN NMR

erre ene a

0 1
  C      264.920     273.447     286.138
  O      266.188     272.814     285.982
  P      266.300     271.668     284.858
  C      266.037     269.729     286.580
  O      265.524     270.388     285.426
  C      265.238     268.460     286.864
  O      263.871     268.791     287.185
  C      265.150     267.489     285.690
  O      266.363     266.775     285.520
  C      263.967     266.635     286.117
  O      264.380     265.668     287.097
  C      263.035     267.681     286.762
  N      258.441     266.695     284.722
  C      259.217     265.984     285.578
  N      260.436     266.304     286.057
  C      260.840     267.496     285.574
  C      260.167     268.313     284.678
  C      258.906     267.876     284.250
  N      258.112     268.595     283.381
  N      260.911     269.442     284.400
  C      262.011     269.311     285.115
  N      262.013     268.160     285.848
  O      267.840     271.234     284.941
  O      265.910     272.100     283.480
  H      264.950     265.008     286.638
  H      268.180     270.989     284.061
  H      258.805     265.043     285.918
  H      262.819     270.027     285.135
  H      262.527     267.291     287.656
  H      263.506     266.083     285.283
  H      264.910     268.026     284.764
  H      265.681     267.958     287.736
  H      265.960     270.395     287.446
  H      257.296     268.139     283.005
  H      258.527     269.395     282.913
  H      267.094     269.496     286.418
  P      266.895     266.567     284.019
  C      265.753     264.259     283.973
  O      265.819     265.543     283.377
  O      268.171     265.623     284.257
  O      267.134     267.822     283.254
  H      267.971     264.876     284.840
  H      264.966     263.692     283.481
  H      265.518     264.339     285.038
  H      266.702     263.731     283.845
  H      264.982     274.183     286.912
  H      264.186     272.714     286.401
  H      264.641     273.918     285.219

 3  4  5  6  7  8  9  10  11  12  22  25  29  30  31  32 0
 6-311+G(2d,p)
 ****
 33  36  37 0
 6-311+G(2d,p)
 ****
 1  2  13  14  15  16  17  18  19  20  21  23  24  26 0
 3-21G
 ****
 27  28  34  35  38  39  40  41  42  43  44  45  46  47  48 0
 3-21G
 ****


