%nproc=1
%NoSave
%Mem=1900MB
#P OB98/GEN NMR

erre ene a

0 1
  C     -159.582     -80.049     706.590
  O     -158.867     -80.194     707.803
  H     -160.488     -80.667     706.638
  H     -158.969     -80.401     705.744
  H     -159.868     -79.009     706.437
  P     -157.489     -79.394     707.972
  C     -155.017     -79.827     707.324
  O     -156.375     -80.278     707.231
  C     -154.083     -81.021     707.443
  O     -154.291     -81.943     706.353
  C     -152.602     -80.644     707.415
  O     -152.180     -80.193     708.687
  C     -151.984     -81.981     707.016
  O     -151.962     -82.856     708.157
  C     -153.001     -82.479     705.972
  N     -149.719     -82.852     702.119
  C     -149.641     -83.357     703.401
  N     -148.507     -84.029     703.715
  N     -150.573     -83.215     704.303
  C     -151.625     -82.460     703.869
  C     -151.805     -81.884     702.631
  C     -150.778     -82.106     701.616
  O     -150.824     -81.692     700.463
  N     -152.960     -81.147     702.586
  C     -153.492     -81.302     703.784
  N     -152.715     -82.075     704.603
  O     -157.118     -78.993     709.367
  O     -157.654     -78.125     707.008
  H     -151.110     -82.696     708.622
  H     -158.010     -77.361     707.493
  H     -148.961     -82.982     701.475
  H     -154.431     -80.882     704.100
  H     -153.087     -83.574     705.978
  H     -150.963     -81.893     706.650
  H     -147.670     -83.923     703.169
  H     -152.379     -79.908     706.631
  H     -148.410     -84.365     704.663
  H     -154.330     -81.555     708.374
  H     -154.950     -79.181     708.210
  H     -154.760     -79.235     706.439
  P     -150.925     -79.204     708.846
  C     -148.362     -79.511     708.625
  O     -149.649     -80.058     708.364
  O     -150.776     -78.572     710.181
  O     -151.091     -78.137     707.656
  H     -151.648     -77.356     707.905
  H     -147.610     -80.176     708.255
  H     -148.236     -79.382     709.680
  H     -148.271     -78.563     708.137

 6  7  8  9  10  11  12  13  14  15  26  29  33  34 0
 6-311+G(2d,p)
 ****
 36  38  39  40  41 0
 6-311+G(2d,p)
 ****
 1  2  3  4  5  16  17  18  19  20  21  22  23  24  25 0
 3-21G
 ****
 27  28  30  31  32  35  37  42  43  44  45  46  47 0
 3-21G
 ****
 48  49 0
 3-21G
 ****


