%nproc=1
%NoSave
%Mem=1900MB
#P OB98/GEN NMR

erre ene a

0 1
  C       76.557       0.524     -65.078
  O       77.461       0.014     -66.036
  H       76.245       1.526     -65.388
  H       77.047       0.597     -64.105
  H       75.668      -0.109     -64.999
  P       77.867      -1.535     -65.972
  C       79.832      -1.065     -64.370
  O       78.608      -1.757     -64.566
  C       80.890      -1.995     -63.767
  O       80.311      -2.663     -62.604
  C       81.379      -3.097     -64.731
  O       82.749      -3.368     -64.409
  C       80.484      -4.255     -64.328
  O       80.945      -5.477     -64.840
  C       80.497      -4.079     -62.807
  N       79.472      -4.855     -62.120
  C       79.657      -6.231     -62.043
  O       80.637      -6.819     -62.495
  N       78.654      -6.932     -61.424
  C       77.513      -6.402     -60.896
  O       76.658      -7.075     -60.333
  C       77.362      -4.945     -61.035
  C       78.333      -4.249     -61.631
  O       78.596      -2.065     -67.160
  O       76.466      -2.283     -65.758
  H       76.138      -2.613     -66.615
  H       81.652      -5.844     -64.268
  H       78.772      -7.932     -61.358
  H       76.458      -4.497     -60.646
  H       78.254      -3.173     -61.753
  H       81.479      -4.337     -62.395
  H       79.475      -4.109     -64.725
  H       81.298      -2.810     -65.783
  H       81.728      -1.389     -63.401
  H       79.648      -0.226     -63.691
  H       80.184      -0.674     -65.331
  P       83.986      -2.720     -65.203
  C       84.135      -4.360     -67.188
  O       83.836      -3.036     -66.771
  O       85.320      -3.102     -64.649
  O       83.771      -1.136     -65.109
  H       84.641      -0.698     -65.035
  H       83.997      -4.440     -68.246
  H       83.482      -5.047     -66.690
  H       85.150      -4.591     -66.942

 6  7  8  9  10  11  12  13  14  15  16  27  31  32  33  34  35 0
 6-311+G(2d,p)
 ****
 36  37 0
 6-311+G(2d,p)
 ****
 1  2  3  4  5  17  18  19  20  21  22  23  24  25 0
 3-21G
 ****
 26  28  29  30  38  39  40  41  42  43  44  45 0
 3-21G
 ****


