%nproc=1
%NoSave
%Mem=1900MB
#P OB98/GEN NMR

erre ene a

0 1
  C       -3.311     -99.336     -15.104
  O       -4.504     -98.599     -14.926
  P       -4.497     -97.178     -14.192
  C       -4.131     -96.338     -11.800
  O       -4.530     -97.434     -12.610
  C       -4.127     -96.712     -10.319
  O       -3.380     -97.944     -10.135
  C       -3.511     -95.647      -9.403
  O       -4.281     -95.626      -8.197
  C       -2.119     -96.189      -9.138
  O       -1.548     -95.655      -7.952
  C       -2.400     -97.695      -9.109
  N       -1.199     -98.488      -9.317
  C       -0.412     -98.751      -8.194
  O       -0.671     -98.211      -7.117
  N        0.653     -99.605      -8.327
  C        1.011    -100.003      -9.509
  N        2.029    -100.901      -9.589
  C        0.349     -99.539     -10.744
  C       -0.763     -98.828     -10.576
  O       -5.520     -96.208     -14.683
  O       -3.016     -96.617     -14.434
  H       -3.074     -95.723     -14.824
  H       -0.711     -96.129      -7.762
  H        0.758     -99.796     -11.710
  H       -1.336     -98.465     -11.421
  H       -2.853     -97.983      -8.152
  H       -1.460     -95.937      -9.976
  H       -3.513     -94.649      -9.852
  H       -5.163     -96.914     -10.016
  H        2.431    -101.227      -8.719
  H       -4.838     -95.522     -11.958
  H        2.162    -101.496     -10.406
  H       -3.140     -95.986     -12.111
  P       -4.754     -94.203      -7.620
  C       -3.464     -92.377      -6.305
  O       -3.444     -93.320      -7.354
  O       -5.201     -94.595      -6.127
  O       -5.888     -93.539      -8.329
  H       -5.855     -93.945      -5.811
  H       -2.521     -91.825      -6.314
  H       -3.562     -92.882      -5.341
  H       -4.286     -91.669      -6.438
  H       -3.530    -100.251     -15.613
  H       -2.880     -99.553     -14.149
  H       -2.620     -98.761     -15.685

 3  4  5  6  7  8  9  10  11  12  13  24  27  28  29  30  32 0
 6-311+G(2d,p)
 ****
 34  35 0
 6-311+G(2d,p)
 ****
 1  2  14  15  16  17  18  19  20  21  22  23  25  26 0
 3-21G
 ****
 31  33  36  37  38  39  40  41  42  43  44  45  46 0
 3-21G
 ****


