%nproc=1
%NoSave
%Mem=1900MB
#P OB98/GEN NMR

erre ene a

0 1
  C      -83.293      -9.125     -19.566
  O      -83.175     -10.314     -20.324
  H      -82.296      -8.812     -19.245
  H      -83.907      -9.310     -18.680
  H      -83.738      -8.329     -20.168
  P      -84.496     -10.809     -21.082
  C      -85.965     -12.952     -20.725
  O      -85.206     -11.902     -20.140
  C      -86.466     -13.902     -19.642
  O      -85.370     -14.622     -19.045
  C      -87.128     -13.211     -18.462
  O      -88.404     -12.699     -18.777
  C      -87.163     -14.349     -17.452
  O      -88.304     -15.194     -17.644
  C      -85.855     -15.114     -17.773
  N      -84.874     -14.971     -16.714
  C      -84.806     -16.042     -15.812
  O      -85.534     -17.023     -15.962
  N      -83.945     -15.952     -14.750
  C      -83.235     -14.879     -14.585
  N      -82.426     -14.841     -13.493
  C      -83.279     -13.729     -15.509
  C      -84.113     -13.840     -16.543
  O      -83.900     -11.688     -22.277
  O      -85.409      -9.716     -21.525
  H      -88.369     -15.352     -18.608
  H      -83.232     -12.334     -21.992
  H      -82.657     -12.863     -15.334
  H      -84.208     -13.042     -17.271
  H      -86.059     -16.184     -17.909
  H      -87.213     -13.976     -16.426
  H      -86.470     -12.425     -18.068
  H      -87.145     -14.627     -20.112
  H      -82.468     -15.627     -12.855
  H      -85.365     -13.496     -21.461
  H      -81.890     -14.031     -13.219
  H      -86.808     -12.497     -21.255
  P      -89.021     -11.454     -17.982
  C      -89.935     -11.030     -15.612
  O      -89.476     -12.004     -16.541
  O      -90.076     -10.692     -18.709
  O      -87.727     -10.585     -17.611
  H      -87.067     -11.046     -17.066
  H      -90.208     -11.511     -14.696
  H      -90.787     -10.525     -16.017
  H      -89.156     -10.321     -15.424

 6  7  8  9  10  11  12  13  14  15  16  26  30  31  32  33  35 0
 6-311+G(2d,p)
 ****
 37  38 0
 6-311+G(2d,p)
 ****
 1  2  3  4  5  17  18  19  20  21  22  23  24  25 0
 3-21G
 ****
 27  28  29  34  36  39  40  41  42  43  44  45  46 0
 3-21G
 ****


