%nproc=1
%NoSave
%Mem=1900MB
#P OB98/GEN NMR

erre ene a

0 1
  C     -267.754      73.046     338.303
  O     -268.864      72.675     339.100
  H     -267.919      72.691     337.281
  H     -266.834      72.591     338.680
  H     -267.648      74.133     338.286
  P     -268.789      72.946     340.679
  C     -268.434      70.385     340.806
  O     -268.053      71.666     341.300
  C     -267.196      69.539     340.529
  O     -266.333      70.211     339.590
  C     -266.345      69.295     341.770
  O     -266.938      68.318     342.603
  C     -265.023      68.908     341.140
  O     -265.030      67.537     340.715
  C     -264.968      69.861     339.923
  N     -264.170      71.056     340.178
  C     -262.940      71.125     339.514
  O     -262.585      70.218     338.762
  N     -262.135      72.213     339.743
  C     -262.527      73.154     340.544
  N     -261.683      74.205     340.725
  C     -263.821      73.127     341.251
  C     -264.582      72.056     341.028
  O     -270.069      73.315     341.362
  O     -267.685      74.098     340.809
  H     -265.551      67.516     339.890
  H     -268.099      74.979     340.755
  H     -264.110      73.936     341.905
  H     -265.551      71.956     341.508
  H     -264.551      69.349     339.049
  H     -264.197      69.034     341.835
  H     -266.199      70.234     342.316
  H     -267.517      68.593     340.078
  H     -260.799      74.178     340.227
  H     -268.995      70.550     339.879
  H     -261.917      75.032     341.253
  H     -269.090      69.874     341.521
  P     -267.578      68.731     344.014
  C     -266.174      66.887     345.150
  O     -266.505      68.274     345.118
  O     -268.975      68.257     344.241
  O     -267.443      70.328     344.024
  H     -268.100      70.749     343.419
  H     -265.455      66.710     345.922
  H     -265.763      66.597     344.206
  H     -267.056      66.314     345.346

 6  7  8  9  10  11  12  13  14  15  16  26  30  31  32  33  35 0
 6-311+G(2d,p)
 ****
 37  38 0
 6-311+G(2d,p)
 ****
 1  2  3  4  5  17  18  19  20  21  22  23  24  25 0
 3-21G
 ****
 27  28  29  34  36  39  40  41  42  43  44  45  46 0
 3-21G
 ****


