%nproc=1
%NoSave
%Mem=1900MB
#P OB98/GEN NMR

erre ene a

0 1
  C     -231.934     -25.819     941.401
  O     -232.326     -25.527     942.722
  H     -232.345     -25.054     940.741
  H     -232.336     -26.790     941.100
  H     -230.848     -25.822     941.305
  P     -231.631     -26.322     943.931
  C     -232.818     -24.436     945.248
  O     -232.297     -25.765     945.284
  C     -233.854     -24.228     946.356
  O     -234.853     -25.287     946.278
  C     -233.257     -24.255     947.768
  O     -234.060     -23.378     948.587
  C     -233.488     -25.706     948.174
  O     -233.392     -25.868     949.569
  C     -234.865     -25.955     947.552
  N     -235.169     -27.386     947.423
  C     -235.667     -28.018     948.558
  O     -235.810     -27.444     949.652
  N     -235.930     -29.353     948.429
  C     -235.706     -30.105     947.319
  O     -235.934     -31.306     947.263
  C     -235.145     -29.393     946.163
  C     -234.901     -28.089     946.263
  O     -230.138     -26.329     943.930
  O     -232.233     -27.803     943.839
  H     -233.364     -26.824     949.799
  H     -231.583     -28.454     944.165
  H     -236.294     -29.828     949.242
  H     -234.939     -29.959     945.265
  H     -234.484     -27.535     945.425
  H     -235.659     -25.501     948.163
  H     -232.734     -26.360     947.710
  H     -232.209     -23.957     947.809
  H     -234.383     -23.274     946.159
  H     -233.290     -24.292     944.266
  H     -231.998     -23.720     945.355
  P     -233.907     -21.783     948.518
  C     -236.402     -21.323     949.022
  O     -235.057     -21.120     949.442
  O     -233.846     -21.229     947.128
  O     -232.564     -21.461     949.317
  H     -232.163     -20.637     948.966
  H     -237.067     -20.841     949.708
  H     -236.614     -22.372     948.998
  H     -236.537     -20.909     948.044

 6  7  8  9  10  11  12  13  14  15  16  26  31  32  33  34  35 0
 6-311+G(2d,p)
 ****
 36  37 0
 6-311+G(2d,p)
 ****
 1  2  3  4  5  17  18  19  20  21  22  23  24  25 0
 3-21G
 ****
 27  28  29  30  38  39  40  41  42  43  44  45 0
 3-21G
 ****


