%nproc=1
%NoSave
%Mem=1900MB
#P OB98/GEN NMR

erre ene a

0 1
  C     -824.105    1227.589    -199.593
  O     -822.755    1227.887    -199.248
  P     -822.312    1229.374    -198.901
  C     -820.381    1228.027    -197.877
  O     -820.795    1229.282    -198.399
  C     -818.919    1227.752    -198.270
  O     -818.080    1228.932    -198.060
  C     -818.247    1226.683    -197.418
  O     -818.740    1225.338    -197.533
  C     -816.771    1226.907    -197.760
  O     -816.430    1226.290    -198.995
  C     -816.723    1228.458    -197.880
  N     -816.090    1229.074    -196.709
  C     -814.717    1228.900    -196.625
  O     -814.043    1228.277    -197.446
  N     -814.101    1229.443    -195.509
  C     -814.747    1230.091    -194.463
  O     -814.175    1230.510    -193.496
  C     -816.214    1230.233    -194.637
  C     -816.823    1229.725    -195.718
  O     -823.225    1230.147    -197.973
  O     -822.144    1230.053    -200.341
  H     -816.893    1225.429    -199.035
  H     -821.490    1229.633    -200.918
  H     -813.120    1229.308    -195.425
  H     -816.758    1230.755    -193.854
  H     -817.874    1229.826    -195.856
  H     -816.176    1228.745    -198.788
  H     -816.114    1226.489    -196.998
  H     -818.390    1226.930    -196.344
  H     -818.886    1227.516    -199.335
  H     -821.008    1227.234    -198.306
  H     -820.510    1228.033    -196.786
  P     -819.165    1224.460    -196.283
  C     -820.685    1223.130    -197.946
  O     -819.790    1223.074    -196.837
  O     -819.898    1225.168    -195.189
  O     -817.741    1223.969    -195.728
  H     -817.789    1223.825    -194.762
  H     -821.033    1222.128    -198.135
  H     -820.127    1223.516    -198.836
  H     -821.545    1223.771    -197.725
  H     -824.200    1226.542    -199.790
  H     -824.380    1228.143    -200.466
  H     -824.748    1227.859    -198.782

 3  4  5  6  7  8  9  10  11  12  13  23  28  29  30  31  32 0
 6-311+G(2d,p)
 ****
 33  34 0
 6-311+G(2d,p)
 ****
 1  2  14  15  16  17  18  19  20  21  22  24  25  26  27 0
 3-21G
 ****
 35  36  37  38  39  40  41  42  43  44  45 0
 3-21G
 ****


