%nproc=1
%NoSave
%Mem=1900MB
#P OB98/GEN NMR

erre ene a

0 1
  C      -43.130      94.970     253.619
  O      -42.304      95.851     252.883
  H      -43.252      94.032     253.072
  H      -42.650      94.759     254.578
  H      -44.107      95.424     253.805
  P      -42.905      96.427     251.512
  C      -41.437      95.272     249.704
  O      -41.681      96.442     250.472
  C      -40.241      95.483     248.775
  O      -40.486      96.657     247.956
  C      -38.921      95.705     249.520
  O      -37.872      95.045     248.808
  C      -38.724      97.210     249.452
  O      -37.355      97.581     249.565
  C      -39.355      97.536     248.102
  N      -37.890     102.258     246.827
  C      -37.284     101.059     246.697
  N      -37.747      99.843     247.059
  C      -38.992      99.941     247.559
  C      -39.736     101.092     247.754
  C      -39.131     102.300     247.370
  N      -39.725     103.530     247.533
  N      -40.956     100.788     248.328
  C      -40.945      99.477     248.474
  N      -39.778      98.923     248.027
  O      -43.122      97.978     251.860
  O      -44.159      95.781     251.029
  H      -36.877      97.226     248.787
  H      -43.947      98.083     252.371
  H      -36.294     101.078     246.251
  H      -41.744      98.889     248.902
  H      -38.668      97.362     247.264
  H      -39.277      97.691     250.268
  H      -38.948      95.339     250.548
  H      -40.173      94.629     248.092
  H      -42.327      95.046     249.108
  H      -39.196     104.350     247.282
  H      -40.622     103.586     247.991
  H      -41.236      94.433     250.379
  P      -37.534      93.539     249.249
  C      -35.147      94.319     249.888
  O      -35.942      93.344     249.229
  O      -38.041      92.667     248.006
  O      -38.209      93.124     250.517
  H      -38.604      91.934     248.321
  H      -34.113      94.060     249.793
  H      -35.412      94.354     250.924
  H      -35.317      95.277     249.444

 6  7  8  9  10  11  12  13  14  15  25  28  32  33  34  35 0
 6-311+G(2d,p)
 ****
 36  39  40 0
 6-311+G(2d,p)
 ****
 1  2  3  4  5  16  17  18  19  20  21  22  23  24 0
 3-21G
 ****
 26  27  29  30  31  37  38  41  42  43  44  45  46  47 0
 3-21G
 ****
 48 0
 3-21G
 ****


