%nproc=1
%NoSave
%Mem=1900MB
#P OB98/GEN NMR

erre ene a

0 1
  C      764.036     302.180    -193.462
  O      764.849     301.024    -193.510
  H      764.090     302.603    -192.453
  H      762.991     301.919    -193.673
  H      764.400     302.923    -194.168
  P      764.876     300.223    -194.898
  C      763.166     298.454    -194.075
  O      763.437     299.518    -194.986
  C      761.692     298.075    -194.111
  O      760.868     299.234    -193.854
  C      761.218     297.515    -195.450
  O      761.511     296.128    -195.543
  C      759.720     297.757    -195.353
  O      759.106     296.708    -194.569
  C      759.634     299.098    -194.606
  N      756.268     302.320    -196.742
  C      756.095     301.152    -196.112
  N      757.041     300.315    -195.606
  C      758.277     300.825    -195.821
  C      758.605     302.010    -196.451
  C      757.527     302.791    -196.922
  N      757.708     303.998    -197.574
  N      759.962     302.192    -196.476
  C      760.450     301.149    -195.822
  N      759.469     300.277    -195.431
  O      766.057     299.338    -195.111
  O      764.734     301.430    -195.947
  H      759.124     295.903    -195.121
  H      764.089     302.083    -195.623
  H      755.068     300.827    -195.985
  H      761.495     301.013    -195.576
  H      758.810     299.111    -193.875
  H      759.227     297.752    -196.334
  H      761.625     298.086    -196.296
  H      761.506     297.353    -193.294
  H      763.445     298.751    -193.059
  H      756.904     304.384    -198.050
  H      758.652     304.260    -197.821
  H      763.784     297.604    -194.365
  P      761.505     295.371    -196.961
  C      759.196     294.274    -196.660
  O      759.954     295.247    -197.354
  O      762.275     294.099    -196.983
  O      762.066     296.462    -197.993
  H      762.344     296.024    -198.813
  H      758.186     294.292    -197.012
  H      759.213     294.490    -195.612
  H      759.617     293.305    -196.832

 6  7  8  9  10  11  12  13  14  15  25  28  32  33  34  35 0
 6-311+G(2d,p)
 ****
 36  39  40 0
 6-311+G(2d,p)
 ****
 1  2  3  4  5  16  17  18  19  20  21  22  23  24 0
 3-21G
 ****
 26  27  29  30  31  37  38  41  42  43  44  45  46  47 0
 3-21G
 ****
 48 0
 3-21G
 ****


