%nproc=1
%NoSave
%Mem=1900MB
#P OB98/GEN NMR

erre ene a

0 1
  C      -94.691    -118.542     -30.973
  O      -95.328    -118.166     -32.178
  H      -93.689    -118.104     -30.954
  H      -94.602    -119.630     -30.922
  H      -95.257    -118.173     -30.112
  P      -96.873    -118.557     -32.336
  C      -98.115    -120.854     -32.595
  O      -96.925    -120.097     -32.788
  C      -98.213    -121.952     -33.655
  O      -97.118    -122.884     -33.542
  C      -99.449    -122.829     -33.522
  O     -100.634    -122.158     -33.887
  C      -99.072    -123.973     -34.450
  O      -99.281    -123.616     -35.822
  C      -97.558    -124.124     -34.149
  N      -97.274    -125.272     -33.299
  C      -96.764    -126.404     -33.952
  O      -96.571    -126.384     -35.165
  N      -96.513    -127.532     -33.209
  C      -96.729    -127.532     -31.932
  N      -96.471    -128.680     -31.260
  C      -97.242    -126.352     -31.203
  C      -97.497    -125.277     -31.939
  O      -97.295    -117.782     -33.670
  O      -97.731    -118.262     -31.151
  H      -98.752    -122.810     -35.984
  H      -96.718    -117.972     -34.432
  H      -97.398    -126.394     -30.132
  H      -97.878    -124.368     -31.485
  H      -96.991    -124.247     -35.083
  H      -99.666    -124.866     -34.262
  H      -99.518    -123.232     -32.504
  H      -98.161    -121.475     -34.643
  H      -96.138    -129.475     -31.795
  H      -99.001    -120.211     -32.624
  H      -96.633    -128.806     -30.268
  H      -98.068    -121.300     -31.595
  P     -101.984    -122.385     -33.052
  C     -103.523    -124.400     -32.595
  O     -102.508    -123.853     -33.438
  O     -103.008    -121.308     -33.195
  O     -101.462    -122.596     -31.553
  H     -100.861    -123.349     -31.433
  H     -103.792    -125.374     -32.946
  H     -104.383    -123.764     -32.614
  H     -103.154    -124.471     -31.593

 6  7  8  9  10  11  12  13  14  15  16  26  30  31  32  33  35 0
 6-311+G(2d,p)
 ****
 37  38 0
 6-311+G(2d,p)
 ****
 1  2  3  4  5  17  18  19  20  21  22  23  24  25 0
 3-21G
 ****
 27  28  29  34  36  39  40  41  42  43  44  45  46 0
 3-21G
 ****


