%nproc=1
%NoSave
%Mem=1900MB
#P OB98/GEN NMR

erre ene a

0 1
  C      -62.339      24.399      -8.732
  O      -63.151      25.183      -7.882
  P      -63.946      24.527      -6.658
  C      -66.237      24.364      -7.795
  O      -65.137      23.640      -7.258
  C      -67.546      23.983      -7.104
  O      -67.828      22.580      -7.344
  C      -67.542      24.209      -5.585
  O      -68.847      24.678      -5.224
  C      -67.307      22.815      -5.034
  O      -67.749      22.681      -3.690
  C      -68.064      21.969      -6.061
  N      -67.648      20.574      -6.050
  C      -68.636      19.618      -6.292
  O      -69.819      19.957      -6.374
  N      -68.258      18.303      -6.421
  C      -67.039      17.960      -6.140
  N      -66.690      16.660      -6.347
  C      -66.031      18.915      -5.638
  C      -66.384      20.197      -5.658
  O      -64.362      25.481      -5.588
  O      -62.936      23.426      -6.077
  H      -62.820      23.572      -5.120
  H      -67.233      23.291      -3.122
  H      -65.068      18.561      -5.297
  H      -65.705      20.977      -5.335
  H      -69.147      22.016      -5.876
  H      -66.235      22.585      -5.062
  H      -66.792      24.938      -5.265
  H      -68.355      24.560      -7.567
  H      -67.396      16.043      -6.732
  H      -66.314      24.127      -8.858
  H      -65.717      16.373      -6.464
  H      -66.052      25.440      -7.705
  P      -68.994      25.571      -3.893
  C      -69.946      23.603      -2.495
  O      -68.937      24.586      -2.633
  O      -70.549      25.967      -3.942
  O      -68.158      26.808      -3.827
  H      -70.682      26.795      -3.447
  H      -69.787      23.072      -1.552
  H      -69.882      22.881      -3.313
  H      -70.934      24.064      -2.476
  H      -61.899      25.024      -9.481
  H      -62.937      23.646      -9.202
  H      -61.566      23.933      -8.157

 3  4  5  6  7  8  9  10  11  12  13  24  27  28  29  30  32 0
 6-311+G(2d,p)
 ****
 34  35 0
 6-311+G(2d,p)
 ****
 1  2  14  15  16  17  18  19  20  21  22  23  25  26 0
 3-21G
 ****
 31  33  36  37  38  39  40  41  42  43  44  45  46 0
 3-21G
 ****


