%nproc=1
%NoSave
%Mem=1900MB
#P OB98/GEN NMR

erre ene a

0 1
  C      -55.399      92.356    -761.868
  O      -55.731      92.567    -760.513
  H      -54.539      91.683    -761.919
  H      -55.124      93.304    -762.340
  H      -56.229      91.899    -762.411
  P      -57.081      93.356    -760.158
  C      -56.326      95.648    -761.074
  O      -57.215      94.546    -761.226
  C      -56.970      96.717    -760.200
  O      -55.981      97.684    -759.782
  C      -58.069      97.517    -760.900
  O      -59.261      96.765    -760.999
  C      -58.147      98.738    -759.989
  O      -58.931      98.452    -758.818
  C      -56.659      98.952    -759.626
  N      -56.014      99.996    -760.422
  C      -55.691     101.172    -759.758
  O      -55.957     101.375    -758.577
  N      -55.071     102.132    -760.516
  C      -54.817     102.063    -761.854
  O      -54.305     102.966    -762.499
  C      -55.209     100.805    -762.510
  C      -55.781      99.845    -761.783
  O      -57.245      93.770    -758.729
  O      -58.238      92.340    -760.612
  H      -58.952      99.270    -758.286
  H      -58.588      91.875    -759.831
  H      -54.836     103.002    -760.056
  H      -55.032     100.710    -763.577
  H      -56.082      98.918    -762.242
  H      -56.563      99.230    -758.562
  H      -58.616      99.595    -760.475
  H      -57.722      97.842    -761.891
  H      -57.368      96.224    -759.300
  H      -56.115      96.070    -762.062
  H      -55.395      95.291    -760.629
  P      -59.983      96.564    -762.414
  C      -61.543      98.578    -762.157
  O      -60.488      98.003    -762.917
  O      -61.019      95.487    -762.446
  O      -58.774      96.222    -763.413
  H      -58.787      95.274    -763.634
  H      -61.804      99.529    -762.572
  H      -61.224      98.706    -761.144
  H      -62.395      97.931    -762.184

 6  7  8  9  10  11  12  13  14  15  16  26  31  32  33  34  35 0
 6-311+G(2d,p)
 ****
 36  37 0
 6-311+G(2d,p)
 ****
 1  2  3  4  5  17  18  19  20  21  22  23  24  25 0
 3-21G
 ****
 27  28  29  30  38  39  40  41  42  43  44  45 0
 3-21G
 ****


