%nproc=1
%NoSave
%Mem=1900MB
#P OB98/GEN NMR

erre ene a

0 1
  C      125.820      26.470      40.924
  O      126.719      27.073      40.015
  H      124.968      26.075      40.364
  H      125.457      27.215      41.636
  H      126.303      25.647      41.457
  P      128.137      27.536      40.606
  C      130.266      27.889      39.165
  O      129.253      26.990      39.591
  C      131.479      27.116      38.659
  O      132.092      26.378      39.740
  C      131.162      26.093      37.572
  O      131.082      26.695      36.288
  C      132.377      25.186      37.680
  O      133.509      25.813      37.046
  C      132.587      25.121      39.198
  N      132.597      20.122      40.033
  C      133.470      20.901      39.298
  N      134.487      20.253      38.690
  N      133.356      22.196      39.165
  C      132.285      22.707      39.818
  C      131.352      22.039      40.579
  C      131.494      20.609      40.724
  O      130.763      19.875      41.382
  N      130.417      22.898      41.093
  C      130.771      24.080      40.629
  N      131.895      24.017      39.844
  O      128.324      26.601      41.895
  O      128.241      28.979      40.964
  H      133.195      26.166      36.193
  H      128.778      27.114      42.592
  H      132.725      19.127      40.093
  H      130.252      25.006      40.832
  H      133.645      25.039      39.470
  H      132.228      24.223      37.190
  H      134.605      19.252      38.711
  H      130.258      25.521      37.810
  H      135.159      20.807      38.174
  H      132.218      27.844      38.299
  H      130.566      28.519      40.009
  H      129.866      28.525      38.370
  P      130.131      25.996      35.197
  C      128.762      26.869      33.170
  O      129.506      27.198      34.338
  O      128.892      25.487      36.074
  O      130.764      24.892      34.422
  H      128.440      24.752      35.617
  H      128.411      27.767      32.706
  H      127.927      26.257      33.440
  H      129.389      26.336      32.486

 6  7  8  9  10  11  12  13  14  15  26  29  33  34 0
 6-311+G(2d,p)
 ****
 36  38  39  40  41 0
 6-311+G(2d,p)
 ****
 1  2  3  4  5  16  17  18  19  20  21  22  23  24  25 0
 3-21G
 ****
 27  28  30  31  32  35  37  42  43  44  45  46  47 0
 3-21G
 ****
 48  49 0
 3-21G
 ****


