%nproc=1
%NoSave
%Mem=1900MB
#P OB98/GEN NMR

erre ene a

0 1
  C     -467.837     630.896      91.638
  O     -469.051     631.014      90.902
  P     -469.885     629.672      90.614
  C     -472.018     630.985      91.282
  O     -471.388     630.157      90.327
  C     -473.470     630.572      91.492
  O     -473.547     629.259      92.079
  C     -474.259     631.484      92.421
  O     -474.754     632.635      91.768
  C     -475.426     630.570      92.793
  O     -476.395     630.542      91.738
  C     -474.731     629.206      92.904
  N     -476.526     627.901      97.515
  C     -477.162     628.263      96.377
  N     -476.610     628.610      95.198
  C     -475.267     628.591      95.264
  C     -474.495     628.272      96.375
  C     -475.172     627.901      97.538
  N     -474.523     627.511      98.695
  N     -473.154     628.368      96.058
  C     -473.116     628.721      94.793
  N     -474.365     628.856      94.264
  O     -469.985     628.993      92.053
  O     -469.279     628.757      89.601
  H     -477.138     629.987      92.051
  H     -470.130     628.025      91.967
  H     -478.235     628.277      96.419
  H     -472.199     628.879      94.222
  H     -475.364     628.381      92.515
  H     -475.944     630.884      93.701
  H     -473.683     631.730      93.327
  H     -473.959     630.530      90.496
  H     -471.972     632.024      90.946
  H     -475.086     627.086      99.427
  H     -473.528     627.324      98.653
  H     -471.460     630.913      92.237
  P     -474.138     634.055      92.252
  C     -475.554     635.079      90.312
  O     -475.136     635.156      91.655
  O     -472.826     634.205      91.345
  O     -473.852     634.123      93.702
  H     -472.164     634.780      91.787
  H     -476.441     635.687      90.166
  H     -475.793     634.047      90.039
  H     -474.752     635.445      89.648
  H     -467.394     631.863      91.752
  H     -467.162     630.254      91.112
  H     -468.044     630.482      92.603

 3  4  5  6  7  8  9  10  11  12  22  25  29  30  31  32 0
 6-311+G(2d,p)
 ****
 33  36  37 0
 6-311+G(2d,p)
 ****
 1  2  13  14  15  16  17  18  19  20  21  23  24  26 0
 3-21G
 ****
 27  28  34  35  38  39  40  41  42  43  44  45  46  47  48 0
 3-21G
 ****


