%nproc=1
%NoSave
%Mem=1900MB
#P OB98/GEN NMR

erre ene a

0 1
  C      767.287     220.628     -93.686
  O      768.139     219.506     -93.831
  H      766.542     220.445     -92.908
  H      767.898     221.496     -93.397
  H      766.788     220.847     -94.637
  P      767.446     218.121     -94.259
  C      768.675     216.786     -92.400
  O      767.429     217.210     -92.936
  C      768.451     215.599     -91.457
  O      768.122     216.081     -90.129
  C      767.298     214.688     -91.868
  O      767.683     213.762     -92.868
  C      767.018     213.983     -90.544
  O      768.033     212.969     -90.311
  C      767.186     215.130     -89.531
  N      763.195     215.310     -86.334
  C      764.274     214.493     -86.386
  N      765.297     214.509     -87.279
  C      765.126     215.512     -88.176
  C      764.086     216.403     -88.245
  C      763.081     216.287     -87.255
  N      761.981     217.123     -87.204
  N      764.232     217.255     -89.332
  C      765.378     216.876     -89.884
  N      765.948     215.819     -89.234
  O      768.559     217.414     -95.177
  O      766.131     218.246     -94.959
  H      767.740     212.466     -89.525
  H      768.138     216.736     -95.740
  H      764.322     213.728     -85.621
  H      765.831     217.344     -90.739
  H      767.622     214.811     -88.584
  H      766.053     213.490     -90.519
  H      766.410     215.259     -92.153
  H      769.397     215.038     -91.386
  H      769.127     217.610     -91.841
  H      761.231     216.842     -86.582
  H      761.808     217.752     -87.984
  H      769.340     216.489     -93.230
  P      766.518     213.178     -93.816
  C      766.692     210.822     -92.729
  O      765.872     211.946     -93.003
  O      767.323     212.469     -94.990
  O      765.559     214.203     -94.321
  H      766.808     212.439     -95.816
  H      766.127     210.092     -92.187
  H      767.534     211.129     -92.144
  H      767.034     210.397     -93.650

 6  7  8  9  10  11  12  13  14  15  25  28  32  33  34  35 0
 6-311+G(2d,p)
 ****
 36  39  40 0
 6-311+G(2d,p)
 ****
 1  2  3  4  5  16  17  18  19  20  21  22  23  24 0
 3-21G
 ****
 26  27  29  30  31  37  38  41  42  43  44  45  46  47 0
 3-21G
 ****
 48 0
 3-21G
 ****


