%nproc=1
%NoSave
%Mem=1900MB
#P OB98/GEN NMR

erre ene a

0 1
  C      -76.274       6.376     -99.777
  O      -76.941       5.426     -98.969
  P      -78.513       5.179     -99.142
  C      -80.100       6.217     -97.409
  O      -79.290       6.452     -98.555
  C      -79.276       6.364     -96.133
  O      -78.675       7.677     -96.057
  C      -80.086       6.227     -94.853
  O      -80.464       4.886     -94.604
  C      -79.124       6.824     -93.835
  O      -78.130       5.865     -93.446
  C      -78.478       7.965     -94.651
  N      -79.010       9.271     -94.297
  C      -78.676       9.747     -93.025
  O      -78.038       9.042     -92.243
  N      -79.084      11.010     -92.671
  C      -79.860      11.682     -93.462
  N      -80.181      12.948     -93.085
  C      -80.367      11.146     -94.742
  C      -79.888       9.957     -95.104
  O      -79.009       3.861     -98.648
  O      -78.754       5.317    -100.720
  H      -79.264       4.543    -101.029
  H      -77.576       5.705     -94.236
  H      -81.065      11.719     -95.333
  H      -80.188       9.496     -96.039
  H      -77.393       7.973     -94.498
  H      -79.632       7.152     -92.923
  H      -80.984       6.853     -94.916
  H      -78.471       5.618     -96.160
  H      -79.800      13.287     -92.211
  H      -80.507       5.204     -97.471
  H      -80.492      13.652     -93.750
  H      -80.938       6.923     -97.410
  P      -81.732       4.656     -93.649
  C      -80.956       3.686     -91.378
  O      -81.237       4.843     -92.139
  O      -82.003       3.082     -93.769
  O      -82.944       5.444     -94.025
  H      -82.962       2.911     -93.745
  H      -80.319       3.967     -90.536
  H      -80.439       2.930     -91.974
  H      -81.890       3.270     -90.989
  H      -75.236       6.399     -99.517
  H      -76.703       7.343     -99.618
  H      -76.378       6.104    -100.807

 3  4  5  6  7  8  9  10  11  12  13  24  27  28  29  30  32 0
 6-311+G(2d,p)
 ****
 34  35 0
 6-311+G(2d,p)
 ****
 1  2  14  15  16  17  18  19  20  21  22  23  25  26 0
 3-21G
 ****
 31  33  36  37  38  39  40  41  42  43  44  45  46 0
 3-21G
 ****


