%nproc=1
%NoSave
%Mem=1900MB
#P OB98/GEN NMR

erre ene a

0 1
  C      -55.881    -220.574    -236.094
  O      -56.873    -220.493    -237.135
  P      -57.460    -221.851    -237.762
  C      -58.929    -223.059    -235.976
  O      -58.882    -222.205    -237.109
  C      -60.279    -222.945    -235.248
  O      -60.464    -221.588    -234.746
  C      -61.501    -223.272    -236.117
  O      -62.487    -223.863    -235.255
  C      -61.961    -221.898    -236.567
  O      -63.311    -221.876    -237.011
  C      -61.709    -221.094    -235.286
  N      -61.652    -219.643    -235.491
  C      -62.836    -218.925    -235.382
  O      -63.940    -219.426    -235.192
  N      -62.722    -217.564    -235.538
  C      -61.578    -216.879    -235.824
  O      -61.548    -215.665    -235.980
  C      -60.362    -217.694    -235.952
  C      -60.454    -219.013    -235.784
  O      -56.500    -222.961    -237.107
  O      -57.407    -221.945    -239.253
  H      -63.460    -221.012    -237.438
  H      -56.211    -223.592    -237.795
  H      -63.567    -217.024    -235.449
  H      -59.431    -217.189    -236.172
  H      -59.565    -219.633    -235.863
  H      -62.484    -221.326    -234.551
  H      -61.332    -221.557    -237.398
  H      -61.270    -223.944    -236.946
  H      -60.244    -223.600    -234.366
  H      -58.130    -222.784    -235.283
  H      -58.766    -224.091    -236.301
  P      -63.188    -225.235    -235.725
  C      -61.725    -227.327    -235.146
  O      -62.690    -226.386    -234.731
  O      -62.360    -225.531    -237.069
  O      -64.659    -225.130    -235.948
  H      -61.402    -225.409    -236.958
  H      -60.932    -226.853    -235.732
  H      -62.203    -228.108    -235.743
  H      -61.275    -227.786    -234.261
  H      -55.600    -219.587    -235.791
  H      -55.020    -221.093    -236.461
  H      -56.286    -221.102    -235.256

 3  4  5  6  7  8  9  10  11  12  13  23  28  29  30  31  32 0
 6-311+G(2d,p)
 ****
 33  34 0
 6-311+G(2d,p)
 ****
 1  2  14  15  16  17  18  19  20  21  22  24  25  26 0
 3-21G
 ****
 27  35  36  37  38  39  40  41  42  43  44  45 0
 3-21G
 ****


