%nproc=1
%NoSave
%Mem=1900MB
#P OB98/GEN NMR

erre ene a

0 1
  C      -58.372    -360.257    -238.887
  O      -58.319    -361.110    -240.012
  H      -57.407    -359.754    -238.787
  H      -58.559    -360.836    -237.979
  H      -59.149    -359.499    -239.014
  P      -59.621    -361.974    -240.380
  C      -58.517    -363.892    -239.031
  O      -59.680    -363.102    -239.234
  C      -58.386    -364.270    -237.558
  O      -58.084    -363.114    -236.744
  C      -59.648    -364.856    -236.931
  O      -59.923    -366.186    -237.337
  C      -59.276    -364.765    -235.463
  O      -58.338    -365.806    -235.136
  C      -58.609    -363.371    -235.412
  N      -59.538    -362.314    -235.013
  C      -59.344    -361.755    -233.745
  O      -58.437    -362.151    -233.015
  N      -60.209    -360.775    -233.315
  C      -61.193    -360.404    -234.075
  N      -62.022    -359.435    -233.597
  C      -61.447    -360.983    -235.409
  C      -60.590    -361.919    -235.811
  O      -59.699    -362.479    -241.784
  O      -60.854    -361.036    -239.969
  H      -58.833    -366.648    -235.154
  H      -61.687    -361.522    -240.187
  H      -62.298    -360.661    -235.990
  H      -60.715    -362.397    -236.777
  H      -57.755    -363.370    -234.722
  H      -60.132    -364.878    -234.794
  H      -60.512    -364.205    -237.111
  H      -57.535    -364.958    -237.469
  H      -61.823    -359.059    -232.679
  H      -57.649    -363.314    -239.366
  H      -62.856    -359.141    -234.086
  H      -58.580    -364.811    -239.618
  P      -61.256    -366.420    -238.205
  C      -62.011    -368.212    -236.465
  O      -62.338    -367.048    -237.205
  O      -60.857    -367.631    -239.163
  O      -61.743    -365.221    -238.961
  H      -60.598    -367.303    -240.047
  H      -62.843    -368.491    -235.853
  H      -61.162    -368.013    -235.844
  H      -61.781    -369.010    -237.139

 6  7  8  9  10  11  12  13  14  15  16  26  30  31  32  33  35 0
 6-311+G(2d,p)
 ****
 37  38 0
 6-311+G(2d,p)
 ****
 1  2  3  4  5  17  18  19  20  21  22  23  24  25 0
 3-21G
 ****
 27  28  29  34  36  39  40  41  42  43  44  45  46 0
 3-21G
 ****


