%nproc=1
%NoSave
%Mem=1900MB
#P OB98/GEN NMR

erre ene a

0 1
  C      -57.143     -16.028     -19.195
  O      -56.259     -17.113     -19.419
  P      -55.152     -17.442     -18.307
  C      -53.356     -16.622     -20.041
  O      -53.840     -16.612     -18.710
  C      -52.072     -15.792     -20.146
  O      -52.424     -14.381     -20.173
  C      -51.086     -15.997     -18.988
  O      -49.763     -15.895     -19.534
  C      -51.381     -14.814     -18.081
  O      -50.301     -14.506     -17.214
  C      -51.688     -13.728     -19.118
  N      -52.455     -12.606     -18.576
  C      -52.399     -11.392     -19.255
  O      -51.729     -11.205     -20.269
  N      -53.132     -10.370     -18.707
  C      -53.840     -10.422     -17.542
  O      -54.463      -9.469     -17.086
  C      -53.822     -11.715     -16.842
  C      -53.151     -12.731     -17.388
  O      -54.785     -18.954     -18.673
  O      -55.623     -17.228     -16.908
  H      -54.806     -19.130     -19.630
  H      -50.627     -13.891     -16.532
  H      -53.137      -9.491     -19.203
  H      -54.360     -11.791     -15.905
  H      -53.122     -13.694     -16.891
  H      -50.756     -13.357     -19.560
  H      -52.259     -15.039     -17.464
  H      -51.212     -16.965     -18.496
  H      -51.590     -16.025     -21.105
  H      -54.111     -16.195     -20.706
  H      -53.178     -17.657     -20.353
  P      -48.659     -16.964     -19.054
  C      -47.076     -15.356     -17.726
  O      -48.013     -16.408     -17.698
  O      -47.507     -16.686     -20.137
  O      -49.119     -18.385     -19.048
  H      -47.306     -15.743     -20.241
  H      -47.017     -14.909     -16.729
  H      -47.366     -14.580     -18.439
  H      -46.090     -15.749     -17.993
  H      -57.816     -15.940     -20.022
  H      -56.580     -15.124     -19.095
  H      -57.701     -16.201     -18.298

 3  4  5  6  7  8  9  10  11  12  13  24  28  29  30  31  32 0
 6-311+G(2d,p)
 ****
 33  34 0
 6-311+G(2d,p)
 ****
 1  2  14  15  16  17  18  19  20  21  22  23  25  26  27 0
 3-21G
 ****
 35  36  37  38  39  40  41  42  43  44  45 0
 3-21G
 ****


