%nproc=1
%NoSave
%Mem=1900MB
#P OB98/GEN NMR

erre ene a

0 1
  C     1853.418      52.358     143.661
  O     1852.151      51.851     143.213
  P     1852.145      50.403     142.528
  C     1851.606      49.177     144.772
  O     1852.522      49.370     143.692
  C     1850.806      47.891     144.570
  O     1851.689      46.794     144.374
  C     1849.941      47.527     145.752
  O     1848.762      48.317     145.779
  C     1849.676      46.053     145.477
  O     1848.539      45.864     144.629
  C     1850.987      45.592     144.793
  N     1851.801      44.753     145.620
  C     1851.599      43.370     145.474
  O     1850.763      42.960     144.691
  N     1852.341      42.515     146.264
  C     1853.191      42.988     147.129
  N     1853.888      42.098     147.859
  C     1853.406      44.436     147.315
  C     1852.701      45.254     146.553
  O     1853.429      50.431     141.600
  O     1850.884      50.091     141.762
  H     1848.737      46.331     143.797
  H     1853.326      49.825     140.830
  H     1854.142      44.780     148.033
  H     1852.789      46.327     146.628
  H     1850.745      45.042     143.877
  H     1849.464      45.500     146.410
  H     1850.499      47.635     146.688
  H     1850.196      48.009     143.660
  H     1853.709      41.113     147.708
  H     1850.922      50.044     144.795
  H     1854.600      42.370     148.536
  H     1852.162      49.153     145.706
  P     1847.981      48.444     147.169
  C     1846.832      50.613     146.393
  O     1847.704      50.026     147.345
  O     1849.149      48.191     148.240
  O     1846.814      47.539     147.385
  H     1848.758      48.153     149.134
  H     1846.613      51.632     146.710
  H     1845.904      50.050     146.310
  H     1847.328      50.655     145.410
  H     1853.281      53.326     144.096
  H     1854.087      52.432     142.829
  H     1853.830      51.694     144.392

 3  4  5  6  7  8  9  10  11  12  13  21  23  27  28  29  30  32 0
 6-311+G(2d,p)
 ****
 34  35 0
 6-311+G(2d,p)
 ****
 1  2  14  15  16  17  18  19  20  22  24  25  26 0
 3-21G
 ****
 31  33  36  37  38  39  40  41  42  43  44  45  46 0
 3-21G
 ****


