%nproc=1
%NoSave
%Mem=1900MB
#P OB98/GEN NMR

erre ene a

0 1
  C      136.185      22.754     -92.665
  O      134.797      23.055     -92.520
  P      134.210      24.209     -91.589
  C      132.500      26.141     -92.058
  O      132.899      24.799     -92.292
  C      131.168      26.505     -92.740
  O      131.346      26.505     -94.180
  C      130.104      25.449     -92.431
  O      129.369      25.512     -91.224
  C      129.237      25.400     -93.684
  O      128.091      26.244     -93.589
  C      130.181      25.902     -94.782
  N      128.726      22.472     -98.292
  C      127.950      23.312     -97.516
  N      126.610      23.192     -97.654
  N      128.442      24.176     -96.670
  C      129.787      24.131     -96.567
  C      130.666      23.331     -97.265
  C      130.113      22.414     -98.244
  O      130.756      21.657     -98.963
  N      131.963      23.548     -96.877
  C      131.870      24.458     -95.932
  N      130.569      24.851     -95.710
  O      135.206      25.195     -91.078
  O      133.627      23.401     -90.318
  H      127.689      26.308     -94.474
  H      133.741      23.984     -89.541
  H      128.295      21.842     -98.945
  H      132.708      24.870     -95.381
  H      129.703      26.686     -95.385
  H      128.863      24.385     -93.852
  H      126.169      22.467     -98.197
  H      130.617      24.480     -92.396
  H      126.039      23.647     -96.939
  H      130.860      27.521     -92.475
  H      133.306      26.781     -92.430
  H      132.427      26.329     -90.985
  P      129.516      24.522     -89.974
  C      129.031      24.560     -87.458
  O      128.926      25.262     -88.683
  O      131.090      24.501     -89.679
  O      129.001      23.138     -90.199
  H      131.321      23.742     -89.111
  H      128.342      25.003     -86.733
  H      130.052      24.643     -87.074
  H      128.777      23.502     -87.589
  H      136.304      21.938     -93.347
  H      136.593      22.486     -91.713
  H      136.699      23.613     -93.044

 3  4  5  6  7  8  9  10  11  12  23  26  30  31 0
 6-311+G(2d,p)
 ****
 33  35  36  37  38 0
 6-311+G(2d,p)
 ****
 1  2  13  14  15  16  17  18  19  20  21  22  24  25 0
 3-21G
 ****
 27  28  29  32  34  39  40  41  42  43  44  45  46  47  48  49 0
 3-21G
 ****


