%nproc=1
%NoSave
%Mem=1900MB
#P OB98/GEN NMR

erre ene a

0 1
  C      -51.476    -119.821    -260.023
  O      -52.559    -118.923    -260.132
  H      -51.698    -120.716    -260.616
  H      -51.343    -120.119    -258.979
  H      -50.556    -119.368    -260.402
  P      -52.347    -117.460    -259.503
  C      -52.647    -116.415    -257.141
  O      -52.876    -117.534    -257.988
  C      -52.972    -116.772    -255.695
  O      -54.406    -116.787    -255.489
  C      -52.463    -118.138    -255.257
  O      -51.094    -118.096    -254.875
  C      -53.359    -118.399    -254.055
  O      -52.890    -117.634    -252.924
  C      -54.709    -117.854    -254.543
  N      -59.234    -120.137    -254.513
  C      -58.724    -119.167    -253.668
  N      -59.529    -118.753    -252.668
  N      -57.527    -118.653    -253.792
  C      -56.829    -119.170    -254.830
  C      -57.227    -120.128    -255.738
  C      -58.554    -120.683    -255.594
  O      -59.067    -121.527    -256.328
  N      -56.246    -120.386    -256.658
  C      -55.249    -119.602    -256.302
  N      -55.548    -118.848    -255.193
  O      -53.464    -116.574    -260.237
  O      -50.987    -116.874    -259.681
  H      -51.926    -117.764    -252.880
  H      -53.108    -115.675    -260.384
  H      -60.160    -120.508    -254.367
  H      -54.297    -119.542    -256.807
  H      -55.298    -117.414    -253.731
  H      -53.365    -119.448    -253.753
  H      -60.442    -119.146    -252.488
  H      -52.651    -118.904    -256.021
  H      -59.190    -118.022    -252.054
  H      -52.559    -115.981    -255.052
  H      -53.289    -115.585    -257.464
  H      -51.599    -116.110    -257.228
  P      -50.152    -119.312    -255.351
  C      -49.754    -121.743    -254.509
  O      -50.522    -120.544    -254.394
  O      -48.703    -118.865    -254.837
  O      -50.170    -119.590    -256.815
  H      -48.009    -119.312    -255.360
  H      -50.117    -122.468    -253.811
  H      -48.727    -121.530    -254.300
  H      -49.843    -122.129    -255.503

 6  7  8  9  10  11  12  13  14  15  26  29  33  34 0
 6-311+G(2d,p)
 ****
 36  38  39  40  41 0
 6-311+G(2d,p)
 ****
 1  2  3  4  5  16  17  18  19  20  21  22  23  24  25 0
 3-21G
 ****
 27  28  30  31  32  35  37  42  43  44  45  46  47 0
 3-21G
 ****
 48  49 0
 3-21G
 ****


