%nproc=1
%NoSave
%Mem=1900MB
#P OB98/GEN NMR

erre ene a

0 1
  C      112.285      -1.008     153.480
  O      113.120      -2.070     152.987
  P      113.648      -3.277     153.901
  C      114.698      -5.539     153.204
  O      114.712      -4.123     153.046
  C      115.083      -6.237     151.888
  O      113.961      -6.209     150.966
  C      116.224      -5.586     151.111
  O      117.483      -5.820     151.715
  C      116.048      -6.238     149.743
  O      116.688      -7.519     149.680
  C      114.520      -6.411     149.641
  N      113.909      -5.513     148.674
  C      114.234      -5.731     147.329
  O      115.061      -6.585     147.021
  N      113.612      -4.955     146.373
  C      112.831      -3.983     146.734
  N      112.236      -3.265     145.746
  C      112.565      -3.641     148.149
  C      113.127      -4.444     149.054
  O      112.559      -4.114     154.497
  O      114.537      -2.590     155.043
  H      114.540      -3.154     155.836
  H      117.653      -7.362     149.771
  H      111.937      -2.804     148.404
  H      112.973      -4.271     150.110
  H      114.275      -7.448     149.382
  H      116.478      -5.623     148.940
  H      116.037      -4.510     151.033
  H      115.320      -7.285     152.114
  H      112.428      -3.536     144.786
  H      113.689      -5.849     153.488
  H      111.591      -2.506     145.918
  H      115.393      -5.818     154.008
  P      118.159      -4.585     152.480
  C      119.416      -4.709     154.752
  O      119.324      -5.165     153.414
  O      117.030      -4.118     153.520
  O      118.575      -3.456     151.593
  H      117.015      -3.144     153.581
  H      119.886      -5.490     155.356
  H      118.433      -4.470     155.169
  H      120.049      -3.814     154.780
  H      112.067      -0.327     152.684
  H      112.795      -0.489     154.264
  H      111.372      -1.418     153.858

 3  4  5  6  7  8  9  10  11  12  13  24  27  28  29  30  32 0
 6-311+G(2d,p)
 ****
 34  35 0
 6-311+G(2d,p)
 ****
 1  2  14  15  16  17  18  19  20  21  22  23  25  26 0
 3-21G
 ****
 31  33  36  37  38  39  40  41  42  43  44  45  46 0
 3-21G
 ****


