%nproc=1
%NoSave
%Mem=1900MB
#P OB98/GEN NMR

erre ene a

0 1
  C       66.331     244.608     524.106
  O       67.461     245.382     523.744
  H       65.556     244.743     523.344
  H       65.939     244.943     525.071
  H       66.602     243.552     524.158
  P       68.690     245.368     524.773
  C       70.626     244.162     523.551
  O       69.536     244.044     524.449
  C       71.206     242.785     523.230
  O       71.903     242.249     524.377
  C       70.173     241.744     522.821
  O       69.863     241.854     521.442
  C       70.905     240.452     523.158
  O       71.850     240.107     522.127
  C       71.633     240.825     524.457
  N       69.481     237.164     527.200
  C       70.090     237.110     525.960
  N       70.097     235.912     525.342
  N       70.622     238.148     525.361
  C       70.489     239.295     526.071
  C       69.916     239.476     527.310
  C       69.378     238.310     527.976
  O       68.903     238.278     529.114
  N       69.990     240.790     527.706
  C       70.580     241.403     526.698
  N       70.899     240.536     525.680
  O       67.994     245.029     526.180
  O       69.473     246.636     524.856
  H       72.430     239.400     522.449
  H       68.440     245.541     526.881
  H       69.120     236.329     527.624
  H       70.806     242.461     526.657
  H       72.597     240.315     524.546
  H       70.214     239.609     523.237
  H       69.463     235.169     525.598
  H       69.271     241.822     523.439
  H       70.472     235.890     524.398
  H       71.950     242.919     522.435
  H       71.401     244.784     524.007
  H       70.282     244.637     522.624
  P       68.361     241.538     520.977
  C       67.740     244.022     520.543
  O       67.462     242.833     521.277
  O       67.867     240.478     522.071
  O       68.244     240.980     519.598
  H       67.845     239.585     521.681
  H       67.066     244.795     520.848
  H       67.616     243.833     519.497
  H       68.747     244.331     520.733

 6  7  8  9  10  11  12  13  14  15  26  29  33  34 0
 6-311+G(2d,p)
 ****
 36  38  39  40  41 0
 6-311+G(2d,p)
 ****
 1  2  3  4  5  16  17  18  19  20  21  22  23  24  25 0
 3-21G
 ****
 27  28  30  31  32  35  37  42  43  44  45  46  47 0
 3-21G
 ****
 48  49 0
 3-21G
 ****


