%nproc=1
%NoSave
%Mem=1900MB
#P OB98/GEN NMR

erre ene a

0 1
  C      620.237     222.110    -197.536
  O      621.148     222.181    -198.616
  H      619.953     221.063    -197.395
  H      619.343     222.691    -197.768
  H      620.690     222.477    -196.613
  P      621.977     223.532    -198.839
  C      620.994     223.904    -201.199
  O      622.172     223.712    -200.420
  C      621.300     224.734    -202.450
  O      621.664     226.083    -202.050
  C      622.505     224.169    -203.224
  O      622.436     224.468    -204.618
  C      623.679     224.916    -202.622
  O      624.818     224.960    -203.475
  C      623.057     226.284    -202.336
  N      626.521     229.772    -200.976
  C      626.309     229.180    -202.206
  N      627.131     229.579    -203.209
  N      625.400     228.278    -202.430
  C      624.696     227.922    -201.323
  C      624.822     228.418    -200.049
  C      625.818     229.451    -199.817
  O      626.059     229.985    -198.746
  N      623.940     227.805    -199.189
  C      623.294     226.947    -199.937
  N      623.693     226.999    -201.248
  O      623.453     223.148    -198.354
  O      621.451     224.738    -198.120
  H      625.051     224.044    -203.702
  H      623.948     223.959    -198.114
  H      627.212     230.486    -200.865
  H      622.516     226.286    -199.584
  H      623.120     226.923    -203.233
  H      623.986     224.390    -201.705
  H      627.967     230.123    -203.025
  H      622.614     223.092    -203.099
  H      627.201     228.953    -204.016
  H      620.408     224.819    -203.075
  H      620.269     224.415    -200.561
  H      620.559     222.939    -201.476
  P      621.645     223.452    -205.577
  C      623.639     222.834    -207.223
  O      622.359     223.401    -207.011
  O      620.264     224.212    -205.870
  O      621.426     222.094    -205.000
  H      619.520     223.699    -205.495
  H      623.900     222.918    -208.257
  H      623.623     221.802    -206.942
  H      624.362     223.354    -206.629

 6  7  8  9  10  11  12  13  14  15  26  29  33  34 0
 6-311+G(2d,p)
 ****
 36  38  39  40  41 0
 6-311+G(2d,p)
 ****
 1  2  3  4  5  16  17  18  19  20  21  22  23  24  25 0
 3-21G
 ****
 27  28  30  31  32  35  37  42  43  44  45  46  47 0
 3-21G
 ****
 48  49 0
 3-21G
 ****


