%nproc=1
%NoSave
%Mem=1900MB
#P OB98/GEN NMR

erre ene a

0 1
  C      793.980    -333.544      89.945
  O      793.448    -334.543      89.102
  H      793.153    -332.993      90.397
  H      794.582    -332.845      89.355
  H      794.591    -333.976      90.742
  P      794.426    -335.682      88.538
  C      793.871    -335.544      86.023
  O      793.716    -336.283      87.229
  C      792.615    -335.666      85.143
  O      791.441    -335.394      85.964
  C      792.591    -334.693      83.955
  O      791.862    -335.329      82.894
  C      791.786    -333.539      84.526
  O      791.289    -332.697      83.502
  C      790.740    -334.298      85.347
  N      790.078    -333.441      86.337
  C      788.686    -333.390      86.282
  O      788.017    -333.996      85.441
  N      788.080    -332.589      87.209
  C      788.718    -331.793      88.119
  O      788.126    -331.064      88.908
  C      790.192    -331.853      88.099
  C      790.796    -332.669      87.223
  O      794.871    -336.702      89.529
  O      795.662    -334.870      87.920
  H      792.023    -332.181      83.102
  H      796.482    -335.400      87.988
  H      787.072    -332.549      87.192
  H      790.729    -331.225      88.795
  H      791.874    -332.729      87.187
  H      789.957    -334.719      84.691
  H      792.407    -332.916      85.184
  H      793.584    -334.394      83.613
  H      792.526    -336.706      84.799
  H      794.737    -335.951      85.486
  H      794.054    -334.491      86.252
  P      792.555    -335.709      81.497
  C      791.040    -334.303      79.944
  O      791.455    -335.618      80.326
  O      793.321    -336.994      81.518
  O      793.530    -334.478      81.177
  H      794.288    -334.785      80.638
  H      790.312    -334.372      79.163
  H      791.886    -333.749      79.595
  H      790.611    -333.805      80.788

 6  7  8  9  10  11  12  13  14  15  16  26  31  32  33  34  35 0
 6-311+G(2d,p)
 ****
 36  37 0
 6-311+G(2d,p)
 ****
 1  2  3  4  5  17  18  19  20  21  22  23  24  25 0
 3-21G
 ****
 27  28  29  30  38  39  40  41  42  43  44  45 0
 3-21G
 ****


