%nproc=1
%NoSave
%Mem=1900MB
#P OB98/GEN NMR

erre ene a

0 1
  C     -466.451    -857.094     -96.391
  O     -466.991    -858.295     -96.971
  P     -465.980    -859.407     -97.543
  C     -467.151    -859.908     -99.818
  O     -466.743    -860.398     -98.554
  C     -468.397    -860.649    -100.339
  O     -467.998    -861.856    -101.066
  C     -469.376    -861.107     -99.245
  O     -470.696    -861.058     -99.798
  C     -468.962    -862.550     -99.009
  O     -469.976    -863.327     -98.366
  C     -468.639    -862.979    -100.449
  N     -467.814    -864.184    -100.537
  C     -468.430    -865.416    -100.291
  O     -469.609    -865.545     -99.917
  N     -467.636    -866.521    -100.438
  C     -466.300    -866.522    -100.762
  O     -465.629    -867.536    -100.845
  C     -465.709    -865.178    -100.991
  C     -466.489    -864.096    -100.867
  O     -465.764    -860.348     -96.252
  O     -464.664    -858.900     -98.040
  H     -469.557    -864.133     -98.041
  H     -464.803    -860.545     -96.150
  H     -468.056    -867.418    -100.255
  H     -464.660    -865.150    -101.263
  H     -466.073    -863.127    -101.061
  H     -469.586    -863.136    -100.993
  H     -468.075    -862.570     -98.364
  H     -469.309    -860.493     -98.336
  H     -468.913    -860.009    -101.053
  H     -466.348    -860.036    -100.547
  H     -467.378    -858.830     -99.735
  P     -471.634    -859.793     -99.431
  C     -473.179    -861.041     -97.730
  O     -473.050    -860.387     -98.977
  O     -471.917    -859.220    -100.910
  O     -470.995    -858.793     -98.528
  H     -472.152    -859.921    -101.544
  H     -472.622    -860.515     -96.945
  H     -472.836    -862.065     -97.800
  H     -474.243    -861.038     -97.464
  H     -467.252    -856.465     -96.062
  H     -465.868    -856.575     -97.123
  H     -465.832    -857.348     -95.556

 3  4  5  6  7  8  9  10  11  12  13  23  28  29  30  31  32 0
 6-311+G(2d,p)
 ****
 33  34 0
 6-311+G(2d,p)
 ****
 1  2  14  15  16  17  18  19  20  21  22  24  25  26 0
 3-21G
 ****
 27  35  36  37  38  39  40  41  42  43  44  45 0
 3-21G
 ****


