%nproc=1
%NoSave
%Mem=1900MB
#P OB98/GEN NMR

erre ene a

0 1
  C      -63.419      45.227     102.667
  O      -62.861      43.971     102.993
  H      -63.988      45.589     103.527
  H      -64.095      45.140     101.812
  H      -62.628      45.948     102.446
  P      -62.069      43.170     101.849
  C      -60.002      44.420     102.785
  O      -60.723      44.022     101.630
  C      -58.691      45.092     102.384
  O      -58.035      45.672     103.530
  C      -57.652      44.157     101.774
  O      -57.953      43.769     100.444
  C      -56.419      45.043     101.857
  O      -56.473      46.039     100.821
  C      -56.606      45.686     103.253
  N      -55.874      44.986     104.306
  C      -54.502      45.251     104.400
  O      -53.963      46.038     103.624
  N      -53.763      44.588     105.351
  C      -54.339      43.723     106.125
  N      -53.552      43.059     107.017
  C      -55.783      43.426     106.072
  C      -56.482      44.080     105.148
  O      -62.839      42.859     100.606
  O      -61.508      41.868     102.592
  H      -55.693      46.612     100.936
  H      -61.019      41.331     101.922
  H      -56.211      42.689     106.736
  H      -57.546      43.903     105.036
  H      -56.291      46.736     103.242
  H      -55.483      44.493     101.732
  H      -57.494      43.280     102.411
  H      -58.938      45.918     101.704
  H      -52.561      43.257     106.996
  H      -59.816      43.529     103.394
  H      -53.859      42.194     107.448
  H      -60.590      45.133     103.370
  P      -57.250      42.443      99.872
  C      -59.017      40.704     100.672
  O      -57.710      41.232     100.820
  O      -55.713      42.661     100.255
  O      -57.447      42.184      98.411
  H      -55.220      43.067      99.515
  H      -59.162      39.909     101.374
  H      -59.140      40.329      99.678
  H      -59.736      41.475     100.853

 6  7  8  9  10  11  12  13  14  15  16  26  30  31  32  33  35 0
 6-311+G(2d,p)
 ****
 37  38 0
 6-311+G(2d,p)
 ****
 1  2  3  4  5  17  18  19  20  21  22  23  24  25 0
 3-21G
 ****
 27  28  29  34  36  39  40  41  42  43  44  45  46 0
 3-21G
 ****


