%nproc=1
%NoSave
%Mem=1900MB
#P OB98/GEN NMR

erre ene a

0 1
  C      237.164    -171.829      17.776
  O      238.366    -172.002      17.051
  H      236.555    -171.074      17.275
  H      237.385    -171.490      18.792
  H      236.607    -172.769      17.813
  P      239.388    -173.105      17.611
  C      239.753    -174.134      15.244
  O      240.332    -173.498      16.374
  C      240.469    -173.688      13.960
  O      239.998    -172.357      13.606
  C      241.999    -173.597      14.109
  O      242.598    -173.874      12.832
  C      242.194    -172.128      14.445
  O      243.534    -171.749      14.249
  C      241.164    -171.512      13.500
  N      242.829    -166.693      13.335
  C      243.341    -167.843      12.840
  N      242.829    -169.086      12.921
  C      241.648    -169.076      13.568
  C      241.004    -167.986      14.127
  C      241.648    -166.745      13.999
  N      241.143    -165.575      14.520
  N      239.825    -168.382      14.735
  C      239.759    -169.682      14.536
  N      240.839    -170.144      13.835
  O      238.459    -174.394      17.808
  O      240.112    -172.741      18.863
  H      243.669    -170.806      14.473
  H      238.118    -174.424      18.721
  H      244.288    -167.749      12.315
  H      238.967    -170.337      14.881
  H      241.500    -171.528      12.455
  H      241.940    -171.927      15.490
  H      242.404    -174.280      14.858
  H      240.184    -174.356      13.138
  H      238.692    -173.861      15.193
  H      239.842    -175.219      15.350
  H      241.680    -164.730      14.407
  H      240.281    -165.604      15.045
  P      243.966    -174.717      12.774
  C      243.365    -176.148      10.677
  O      244.254    -175.219      11.276
  O      243.548    -176.081      13.511
  O      245.133    -174.096      13.466
  H      244.237    -176.329      14.156
  H      243.700    -176.375       9.687
  H      242.383    -175.725      10.633
  H      243.341    -177.045      11.260

 6  7  8  9  10  11  12  13  14  15  25  28  32  33  34  35 0
 6-311+G(2d,p)
 ****
 36  37  40 0
 6-311+G(2d,p)
 ****
 1  2  3  4  5  16  17  18  19  20  21  22  23  24 0
 3-21G
 ****
 26  27  29  30  31  38  39 41  42  43  44  45  46  47  48 0
 3-21G
 ****


