%nproc=1
%NoSave
%Mem=1900MB
#P OB98/GEN NMR

erre ene a

0 1
  C      -87.531      90.506      67.591
  O      -88.116      89.314      68.121
  P      -88.020      89.127      69.714
  C      -87.917      86.564      70.080
  O      -88.723      87.733      70.091
  C      -88.737      85.321      69.718
  O      -89.796      85.091      70.694
  C      -89.411      85.404      68.344
  O      -89.415      84.076      67.799
  C      -90.833      85.802      68.689
  O      -91.731      85.520      67.617
  C      -91.034      84.974      69.957
  N      -95.101      83.416      72.510
  C      -94.225      82.707      71.714
  N      -94.432      81.374      71.625
  N      -93.230      83.252      71.063
  C      -93.120      84.586      71.279
  C      -93.914      85.398      72.055
  C      -95.031      84.785      72.744
  O      -95.832      85.368      73.463
  N      -93.464      86.699      72.047
  C      -92.441      86.671      71.210
  N      -92.159      85.411      70.762
  O      -89.035      90.232      70.271
  O      -86.642      89.315      70.256
  H      -91.422      86.024      66.834
  H      -88.543      91.018      70.576
  H      -95.860      82.948      72.975
  H      -91.858      87.527      70.916
  H      -91.205      83.913      69.737
  H      -90.882      86.876      68.909
  H      -95.150      80.883      72.139
  H      -88.933      86.098      67.645
  H      -93.780      80.825      71.080
  H      -88.070      84.451      69.750
  H      -87.460      86.418      71.061
  H      -87.088      86.709      69.378
  P      -88.099      83.575      67.039
  C      -88.543      83.443      64.494
  O      -88.573      82.773      65.738
  O      -87.540      82.424      68.005
  O      -87.066      84.633      66.816
  H      -86.565      82.465      68.031
  H      -88.428      82.703      63.698
  H      -87.715      84.153      64.435
  H      -89.486      83.976      64.347
  H      -87.655      90.522      66.528
  H      -86.488      90.528      67.829
  H      -88.013      91.360      68.019

 3  4  5  6  7  8  9  10  11  12  23  26  30  31 0
 6-311+G(2d,p)
 ****
 33  35  36  37  38 0
 6-311+G(2d,p)
 ****
 1  2  13  14  15  16  17  18  19  20  21  22  24  25 0
 3-21G
 ****
 27  28  29  32  34  39  40  41  42  43  44  45  46  47  48  49 0
 3-21G
 ****


