%nproc=1
%NoSave
%Mem=1900MB
#P OB98/GEN NMR

erre ene a

0 1
  C      409.689     101.324    -288.500
  O      409.921      99.943    -288.660
  H      408.661     101.542    -288.800
  H      410.368     101.891    -289.142
  H      409.823     101.631    -287.459
  P      411.229      99.297    -287.998
  C      410.133      97.264    -286.841
  O      410.756      98.530    -286.671
  C      410.126      96.480    -285.524
  O      411.495      96.288    -285.082
  C      409.404      97.251    -284.413
  O      408.832      96.382    -283.440
  C      410.532      98.040    -283.767
  O      410.243      98.434    -282.425
  C      411.696      97.061    -283.887
  N      416.083      98.003    -281.465
  C      414.919      97.446    -280.975
  N      414.924      97.089    -279.669
  N      413.840      97.275    -281.694
  C      413.952      97.742    -282.961
  C      415.044      98.333    -283.554
  C      416.247      98.487    -282.758
  O      417.297      98.996    -283.134
  N      414.780      98.687    -284.854
  C      413.531      98.314    -285.047
  N      412.991      97.713    -283.934
  O      412.015     100.562    -287.405
  O      412.094      98.497    -288.924
  H      409.605      99.173    -282.468
  H      412.960     100.352    -287.293
  H      416.895      98.083    -280.877
  H      412.977      98.440    -285.970
  H      411.707      96.367    -283.036
  H      410.686      98.958    -284.345
  H      415.659      97.385    -279.043
  H      408.633      97.916    -284.796
  H      414.009      96.979    -279.224
  H      409.701      95.482    -285.683
  H      410.701      96.728    -287.606
  H      409.118      97.389    -287.221
  P      407.244      96.406    -283.229
  C      407.008      93.788    -283.537
  O      406.590      95.096    -283.866
  O      406.753      97.585    -284.192
  O      406.810      96.623    -281.813
  H      406.363      98.313    -283.672
  H      406.426      93.079    -284.087
  H      406.873      93.624    -282.488
  H      408.042      93.671    -283.786

 6  7  8  9  10  11  12  13  14  15  26  29  33  34 0
 6-311+G(2d,p)
 ****
 36  38  39  40  41 0
 6-311+G(2d,p)
 ****
 1  2  3  4  5  16  17  18  19  20  21  22  23  24  25 0
 3-21G
 ****
 27  28  30  31  32  35  37  42  43  44  45  46  47 0
 3-21G
 ****
 48  49 0
 3-21G
 ****


