%nproc=1
%NoSave
%Mem=1900MB
#P OB98/GEN NMR

erre ene a

0 1
  C       81.019    -129.812      18.756
  O       81.288    -129.205      17.490
  P       82.730    -128.570      17.212
  C       82.360    -126.047      16.782
  O       82.747    -127.049      17.716
  C       82.159    -124.709      17.500
  O       81.057    -124.770      18.437
  C       83.361    -124.304      18.345
  O       84.533    -123.935      17.649
  C       82.760    -123.278      19.290
  O       82.686    -121.988      18.686
  C       81.343    -123.855      19.517
  N       81.201    -124.508      20.818
  C       80.440    -123.827      21.762
  O       79.944    -122.721      21.561
  N       80.299    -124.449      22.974
  C       80.859    -125.640      23.334
  O       80.718    -126.141      24.443
  C       81.672    -126.300      22.301
  C       81.803    -125.715      21.109
  O       83.285    -128.794      15.847
  O       83.652    -129.300      18.310
  H       82.096    -121.440      19.239
  H       84.505    -129.519      17.886
  H       79.744    -123.973      23.669
  H       82.135    -127.244      22.553
  H       82.398    -126.186      20.334
  H       80.592    -123.059      19.459
  H       83.357    -123.171      20.201
  H       83.645    -125.170      18.961
  H       81.918    -123.947      16.757
  H       81.441    -126.347      16.277
  H       83.128    -125.970      16.005
  P       85.891    -124.786      17.701
  C       86.760    -123.506      19.781
  O       86.451    -124.755      19.202
  O       86.875    -124.574      16.600
  O       85.326    -126.288      17.596
  H       85.978    -126.829      17.113
  H       87.141    -123.675      20.792
  H       85.866    -122.881      19.844
  H       87.531    -122.996      19.198
  H       80.015    -130.181      18.768
  H       81.142    -129.086      19.533
  H       81.699    -130.623      18.915

 3  4  5  6  7  8  9  10  11  12  13  23  28  29  30  31  32 0
 6-311+G(2d,p)
 ****
 33  34 0
 6-311+G(2d,p)
 ****
 1  2  14  15  16  17  18  19  20  21  22  24  25  26  27 0
 3-21G
 ****
 35  36  37  38  39  40  41  42  43  44  45 0
 3-21G
 ****


