%nproc=1
%NoSave
%Mem=1900MB
#P OB98/GEN NMR

erre ene a

0 1
  C     -136.178    -284.337     117.990
  O     -135.357    -283.794     119.005
  H     -137.031    -283.670     117.834
  H     -136.550    -285.320     118.292
  H     -135.618    -284.421     117.055
  P     -134.076    -284.667     119.424
  C     -135.468    -285.869     121.251
  O     -134.645    -286.007     120.101
  C     -135.172    -286.980     122.254
  O     -135.555    -288.266     121.721
  C     -133.705    -287.090     122.657
  O     -133.390    -286.169     123.687
  C     -133.633    -288.538     123.120
  O     -134.145    -288.677     124.462
  C     -134.552    -289.244     122.112
  N     -132.939    -293.440     119.814
  C     -133.517    -293.270     121.056
  N     -133.664    -294.380     121.814
  N     -133.907    -292.114     121.524
  C     -133.646    -291.086     120.685
  C     -133.077    -291.123     119.432
  C     -132.700    -292.416     118.905
  O     -132.260    -292.641     117.782
  N     -132.998    -289.866     118.885
  C     -133.484    -289.072     119.818
  N     -133.887    -289.762     120.931
  O     -133.465    -283.858     120.666
  O     -133.056    -284.863     118.354
  H     -133.722    -288.014     125.034
  H     -132.491    -283.900     120.618
  H     -132.686    -294.357     119.494
  H     -133.576    -287.996     119.733
  H     -135.084    -290.087     122.566
  H     -132.605    -288.903     123.144
  H     -133.132    -295.220     121.639
  H     -133.047    -286.954     121.789
  H     -134.018    -294.241     122.751
  H     -135.799    -286.801     123.139
  H     -136.517    -285.927     120.943
  H     -135.282    -284.896     121.712
  P     -131.998    -285.381     123.600
  C     -130.532    -287.379     124.374
  O     -130.836    -286.457     123.336
  O     -131.751    -284.922     125.114
  O     -132.004    -284.207     122.680
  H     -131.929    -283.969     125.204
  H     -129.744    -288.028     124.055
  H     -131.402    -287.959     124.602
  H     -130.222    -286.844     125.247

 6  7  8  9  10  11  12  13  14  15  26  29  33  34 0
 6-311+G(2d,p)
 ****
 36  38  39  40  41 0
 6-311+G(2d,p)
 ****
 1  2  3  4  5  16  17  18  19  20  21  22  23  24  25 0
 3-21G
 ****
 27  28  30  31  32  35  37  42  43  44  45  46  47 0
 3-21G
 ****
 48  49 0
 3-21G
 ****


