%nproc=1
%NoSave
%Mem=1900MB
#P OB98/GEN NMR

erre ene a

0 1
  C     -495.998     121.091    -398.160
  O     -495.932     120.312    -396.968
  P     -496.490     118.811    -396.982
  C     -497.271     118.815    -394.528
  O     -496.420     118.214    -395.497
  C     -496.662     118.704    -393.122
  O     -496.606     117.313    -392.698
  C     -495.225     119.249    -393.060
  O     -494.967     119.833    -391.774
  C     -494.380     117.994    -393.174
  O     -493.062     118.200    -392.669
  C     -495.231     117.003    -392.379
  N     -495.839     112.154    -390.855
  C     -496.338     113.315    -390.376
  N     -496.151     114.565    -390.847
  C     -495.365     114.548    -391.938
  C     -494.794     113.445    -392.549
  C     -495.048     112.197    -391.955
  N     -494.520     111.017    -392.435
  N     -494.041     113.820    -393.652
  C     -494.129     115.140    -393.672
  N     -494.942     115.617    -392.682
  O     -495.927     117.924    -398.045
  O     -498.067     119.025    -397.192
  H     -493.139     118.469    -391.739
  H     -498.400     118.362    -397.830
  H     -496.964     113.226    -389.494
  H     -493.616     115.780    -394.369
  H     -495.109     117.141    -391.297
  H     -494.304     117.696    -394.224
  H     -494.986     119.984    -393.838
  H     -497.304     119.230    -392.412
  H     -498.252     118.331    -394.547
  H     -494.658     110.186    -391.871
  H     -493.812     111.055    -393.154
  H     -497.441     119.860    -394.808
  P     -494.865     121.443    -391.736
  C     -492.379     120.924    -391.110
  O     -493.491     121.775    -390.976
  O     -496.093     122.105    -391.199
  O     -494.564     121.790    -393.272
  H     -493.837     121.287    -393.664
  H     -491.520     121.388    -390.625
  H     -492.139     120.758    -392.161
  H     -492.579     119.964    -390.620
  H     -495.585     122.061    -397.976
  H     -497.019     121.190    -398.465
  H     -495.439     120.607    -398.934

 3  4  5  6  7  8  9  10  11  12  22  25  29  30  31  32 0
 6-311+G(2d,p)
 ****
 33  36  37 0
 6-311+G(2d,p)
 ****
 1  2  13  14  15  16  17  18  19  20  21  23  24  26 0
 3-21G
 ****
 27  28  34  35  38  39  40  41  42  43  44  45  46  47  48 0
 3-21G
 ****


