%nproc=1
%NoSave
%Mem=1900MB
#P OB98/GEN NMR

erre ene a

0 1
  C      592.249    -710.131     499.699
  O      592.437    -709.280     500.839
  P      593.858    -709.382     501.586
  C      593.669    -711.494     503.103
  O      594.146    -710.935     501.895
  C      594.091    -712.950     503.275
  O      595.532    -713.038     503.547
  C      593.377    -713.671     504.433
  O      593.213    -715.037     504.049
  C      594.374    -713.590     505.566
  O      594.113    -714.590     506.560
  C      595.689    -713.759     504.791
  N      596.870    -713.272     505.542
  C      597.369    -714.120     506.541
  O      596.805    -715.192     506.802
  N      598.492    -713.723     507.226
  C      599.019    -712.564     506.991
  N      600.117    -712.227     507.714
  C      598.474    -711.614     505.994
  C      597.414    -712.044     505.309
  O      593.539    -708.765     503.039
  O      594.956    -708.649     500.910
  H      593.468    -714.224     507.208
  H      594.220    -708.109     503.265
  H      598.942    -710.643     505.846
  H      596.935    -711.412     504.553
  H      595.869    -714.819     504.542
  H      594.319    -712.608     506.046
  H      592.404    -713.252     504.662
  H      593.911    -713.476     502.338
  H      600.458    -712.908     508.392
  H      592.569    -711.451     503.115
  H      600.598    -711.362     507.621
  H      594.001    -710.874     503.940
  P      591.753    -715.709     504.150
  C      591.597    -717.086     506.321
  O      591.466    -715.802     505.725
  O      592.073    -717.236     503.785
  O      590.669    -715.163     503.298
  H      591.250    -717.747     503.747
  H      591.497    -716.987     507.395
  H      592.566    -717.517     506.097
  H      590.798    -717.763     505.955
  H      591.272    -709.972     499.292
  H      592.349    -711.154     499.997
  H      592.986    -709.902     498.957

 3  4  5  6  7  8  9  10  11  12  13  21  23  27  28  29  30  32 0
 6-311+G(2d,p)
 ****
 34  35 0
 6-311+G(2d,p)
 ****
 1  2  14  15  16  17  18  19  20  22  24  25  26 0
 3-21G
 ****
 31  33  36  37  38  39  40  41  42  43  44  45  46 0
 3-21G
 ****


