%nproc=1
%NoSave
%Mem=1900MB
#P OB98/GEN NMR

erre ene a

0 1
  C      -77.978      39.007      26.714
  O      -77.882      39.727      25.504
  H      -78.878      38.388      26.681
  H      -78.057      39.692      27.562
  H      -77.109      38.355      26.840
  P      -76.677      40.766      25.318
  C      -76.373      40.593      22.761
  O      -76.827      41.392      23.848
  C      -77.442      39.562      22.379
  O      -78.657      40.284      22.064
  C      -77.042      38.729      21.154
  O      -77.135      37.325      21.382
  C      -77.886      39.329      20.036
  O      -78.161      38.443      18.971
  C      -79.123      39.850      20.773
  N      -79.809      40.938      20.080
  C      -80.112      40.749      18.734
  O      -79.859      39.735      18.089
  N      -80.747      41.797      18.118
  C      -81.086      42.984      18.695
  O      -81.658      43.884      18.092
  C      -80.715      43.135      20.110
  C      -80.103      42.122      20.727
  O      -75.318      40.241      25.636
  O      -77.071      41.991      26.271
  H      -78.564      38.973      18.251
  H      -76.514      41.972      27.072
  H      -80.986      41.666      17.148
  H      -80.957      44.070      20.595
  H      -79.817      42.199      21.772
  H      -79.846      39.047      20.924
  H      -77.341      40.181      19.611
  H      -75.983      38.874      20.913
  H      -77.649      38.930      23.249
  H      -75.454      40.088      23.076
  H      -76.151      41.234      21.901
  P      -75.897      36.352      21.626
  C      -77.139      34.061      21.978
  O      -76.307      34.878      21.164
  O      -75.218      36.478      22.948
  O      -74.836      36.795      20.495
  H      -73.948      36.645      20.878
  H      -77.295      33.119      21.496
  H      -78.081      34.547      22.126
  H      -76.667      33.903      22.925

 6  7  8  9  10  11  12  13  14  15  16  26  31  32  33  34  35 0
 6-311+G(2d,p)
 ****
 36  37 0
 6-311+G(2d,p)
 ****
 1  2  3  4  5  17  18  19  20  21  22  23  24  25 0
 3-21G
 ****
 27  28  29  30  38  39  40  41  42  43  44  45 0
 3-21G
 ****


