%nproc=1
%NoSave
%Mem=1900MB
#P OB98/GEN NMR

erre ene a

0 1
  C      374.972    -245.926    -253.196
  O      374.799    -244.574    -253.640
  P      374.223    -243.404    -252.701
  C      371.830    -243.061    -253.603
  O      372.634    -243.577    -252.548
  C      370.452    -242.619    -253.102
  O      369.692    -242.013    -254.191
  C      369.591    -243.753    -252.516
  O      368.895    -243.204    -251.394
  C      368.641    -244.052    -253.671
  O      367.479    -244.762    -253.284
  C      368.383    -242.626    -254.174
  N      367.747    -242.527    -255.483
  C      367.210    -241.287    -255.853
  O      367.225    -240.325    -255.083
  N      366.645    -241.163    -257.100
  C      366.609    -242.181    -257.903
  N      366.044    -241.987    -259.125
  C      367.141    -243.508    -257.547
  C      367.691    -243.607    -256.338
  O      374.631    -242.033    -253.137
  O      374.785    -243.718    -251.236
  H      374.981    -242.879    -250.780
  H      367.046    -245.098    -254.089
  H      367.098    -244.327    -258.249
  H      368.134    -244.544    -256.009
  H      367.785    -242.083    -253.432
  H      369.171    -244.657    -254.414
  H      370.171    -244.619    -252.184
  H      370.598    -241.831    -252.352
  H      365.699    -241.056    -259.338
  H      371.695    -243.846    -254.352
  H      365.971    -242.705    -259.830
  H      372.354    -242.222    -254.075
  P      369.409    -243.522    -249.910
  C      368.023    -245.689    -249.480
  O      369.296    -245.106    -249.683
  O      368.189    -242.978    -249.014
  O      370.682    -242.861    -249.495
  H      368.522    -242.742    -248.132
  H      367.954    -246.600    -250.084
  H      367.209    -245.018    -249.763
  H      367.921    -245.953    -248.423
  H      375.368    -246.516    -253.996
  H      374.027    -246.325    -252.892
  H      375.650    -245.946    -252.369

 3  4  5  6  7  8  9  10  11  12  13  24  27  28  29  30  32 0
 6-311+G(2d,p)
 ****
 34  35 0
 6-311+G(2d,p)
 ****
 1  2  14  15  16  17  18  19  20  21  22  23  25  26 0
 3-21G
 ****
 31  33  36  37  38  39  40  41  42  43  44  45  46 0
 3-21G
 ****


