%nproc=1
%NoSave
%Mem=1900MB
#P OB98/GEN NMR

erre ene a

0 1
  C      -67.637      10.452     101.111
  O      -67.446      11.126     102.336
  H      -68.214       9.541     101.299
  H      -66.670      10.168     100.688
  H      -68.188      11.073     100.399
  P      -66.877      12.625     102.319
  C      -68.580      14.534     101.963
  O      -68.068      13.558     102.861
  C      -69.936      15.042     102.460
  O      -70.860      13.910     102.504
  C      -69.881      15.659     103.874
  O      -70.834      16.728     103.943
  C      -70.345      14.496     104.727
  O      -70.804      14.918     105.987
  C      -71.419      13.880     103.833
  N      -71.763      12.527     104.262
  C      -73.033      12.068     103.932
  O      -73.863      12.738     103.319
  N      -73.361      10.823     104.397
  C      -72.602      10.058     105.234
  O      -72.974       8.986     105.684
  C      -71.288      10.618     105.595
  C      -70.930      11.805     105.096
  O      -66.267      13.078     101.034
  O      -65.836      12.669     103.536
  H      -71.221      14.169     106.457
  H      -65.205      13.404     103.417
  H      -74.276      10.472     104.157
  H      -70.664      10.046     106.269
  H      -69.977      12.256     105.353
  H      -72.324      14.499     103.827
  H      -69.516      13.796     104.890
  H      -68.889      16.024     104.143
  H      -70.342      15.755     101.731
  H      -68.695      14.067     100.977
  H      -67.873      15.365     101.885
  P      -70.408      18.259     103.722
  C      -70.385      18.716     101.196
  O      -71.117      18.860     102.408
  O      -68.932      18.499     103.781
  O      -71.130      19.045     104.922
  H      -70.495      19.664     105.329
  H      -70.942      19.146     100.390
  H      -70.219      17.677     101.001
  H      -69.444      19.217     101.286

 6  7  8  9  10  11  12  13  14  15  16  26  31  32  33  34  35 0
 6-311+G(2d,p)
 ****
 36  37 0
 6-311+G(2d,p)
 ****
 1  2  3  4  5  17  18  19  20  21  22  23  24  25 0
 3-21G
 ****
 27  28  29  30  38  39  40  41  42  43  44  45 0
 3-21G
 ****


