%nproc=1
%NoSave
%Mem=1900MB
#P OB98/GEN NMR

erre ene a

0 1
  C       90.244     270.666    -121.618
  O       91.682     270.606    -121.703
  P       92.612     269.990    -120.556
  C       92.299     272.079    -119.056
  O       92.196     270.664    -119.155
  C       91.331     272.635    -118.002
  O       91.310     271.763    -116.840
  C       91.692     273.998    -117.435
  O       91.441     275.051    -118.353
  C       90.820     274.039    -116.190
  O       89.479     274.477    -116.496
  C       90.794     272.559    -115.752
  N       91.562     272.322    -114.539
  C       90.896     272.591    -113.318
  O       89.770     273.092    -113.330
  N       91.553     272.310    -112.141
  C       92.785     271.892    -112.170
  N       93.375     271.613    -110.977
  C       93.552     271.718    -113.424
  C       92.883     271.952    -114.546
  O       94.080     270.065    -120.849
  O       92.145     268.457    -120.410
  H       92.878     267.921    -120.058
  H       88.909     274.190    -115.760
  H       94.596     271.421    -113.389
  H       93.369     271.847    -115.516
  H       89.765     272.229    -115.604
  H       91.214     274.729    -115.430
  H       92.750     274.004    -117.145
  H       90.318     272.649    -118.450
  H       92.818     271.721    -110.135
  H       92.046     272.509    -120.033
  H       94.319     271.251    -110.890
  H       93.340     272.350    -118.816
  P       92.726     275.779    -118.991
  C       92.695     277.506    -117.025
  O       93.455     276.576    -117.788
  O       92.082     276.955    -119.880
  O       93.615     274.899    -119.798
  H       92.598     277.056    -120.713
  H       93.149     277.571    -116.032
  H       91.654     277.190    -116.936
  H       92.746     278.493    -117.507
  H       89.853     271.119    -122.505
  H       89.961     271.248    -120.766
  H       89.851     269.676    -121.520

 3  4  5  6  7  8  9  10  11  12  13  24  27  28  29  30  32 0
 6-311+G(2d,p)
 ****
 34  35 0
 6-311+G(2d,p)
 ****
 1  2  14  15  16  17  18  19  20  21  22  23  25  26 0
 3-21G
 ****
 31  33  36  37  38  39  40  41  42  43  44  45  46 0
 3-21G
 ****


