%nproc=1
%NoSave
%Mem=1900MB
#P OB98/GEN NMR

erre ene a

0 1
  C      -45.712     896.268      66.411
  O      -46.145     897.324      67.247
  H      -45.910     896.509      65.362
  H      -44.639     896.134      66.546
  H      -46.226     895.337      66.683
  P      -47.687     897.747      67.113
  C      -46.852     900.148      67.631
  O      -47.836     899.157      67.875
  C      -47.438     901.538      67.837
  O      -48.363     901.860      66.774
  C      -48.239     901.712      69.125
  O      -47.396     901.894      70.256
  C      -49.028     902.970      68.802
  O      -48.200     904.138      69.015
  C      -49.327     902.806      67.311
  N      -54.362     903.640      67.913
  C      -53.270     904.342      68.324
  N      -51.969     904.052      68.145
  C      -51.829     902.925      67.430
  C      -52.835     902.110      66.936
  C      -54.155     902.501      67.213
  N      -55.259     901.783      66.799
  N      -52.313     901.036      66.242
  C      -51.006     901.201      66.306
  N      -50.663     902.321      67.024
  O      -48.445     896.723      68.083
  O      -48.243     897.708      65.728
  H      -48.066     904.210      69.984
  H      -49.313     896.499      67.694
  H      -53.490     905.255      68.882
  H      -50.275     900.541      65.859
  H      -49.181     903.745      66.760
  H      -49.922     903.094      69.425
  H      -48.938     900.867      69.272
  H      -46.616     902.267      67.800
  H      -46.491     900.067      66.602
  H      -56.163     902.213      66.853
  H      -55.096     900.927      66.268
  H      -46.009     899.985      68.310
  P      -47.693     900.991      71.554
  C      -46.352     902.456      73.235
  O      -46.435     901.216      72.530
  O      -47.485     899.506      71.016
  O      -49.042     901.178      72.166
  H      -47.997     898.875      71.561
  H      -45.470     902.464      73.841
  H      -47.214     902.570      73.859
  H      -46.310     903.263      72.534

 6  7  8  9  10  11  12  13  14  15  25  28  32  33  34  35 0
 6-311+G(2d,p)
 ****
 36  39  40 0
 6-311+G(2d,p)
 ****
 1  2  3  4  5  16  17  18  19  20  21  22  23  24 0
 3-21G
 ****
 26  27  29  30  31  37  38  41  42  43  44  45  46  47  48 0
 3-21G
 ****


