%nproc=1
%NoSave
%Mem=1900MB
#P OB98/GEN NMR

erre ene a

0 1
  C     -242.185     143.712     164.601
  O     -242.152     142.733     165.620
  H     -241.160     144.002     164.359
  H     -242.730     144.596     164.945
  H     -242.660     143.310     163.703
  P     -243.567     142.156     166.108
  C     -243.357     143.073     168.532
  O     -244.061     143.113     167.297
  C     -243.081     144.494     169.011
  O     -242.832     145.355     167.874
  C     -244.247     145.134     169.753
  O     -244.346     144.685     171.093
  C     -243.901     146.608     169.630
  O     -242.964     147.013     170.636
  C     -243.258     146.686     168.241
  N     -243.695     148.165     163.375
  C     -242.673     147.605     164.059
  N     -242.641     147.228     165.356
  C     -243.827     147.455     165.944
  C     -244.958     148.013     165.373
  C     -244.865     148.376     164.019
  N     -245.896     148.967     163.328
  N     -245.970     148.122     166.306
  C     -245.463     147.629     167.418
  N     -244.173     147.210     167.246
  O     -243.165     140.797     166.854
  O     -244.563     141.921     165.023
  H     -242.631     147.891     170.363
  H     -243.322     140.040     166.259
  H     -241.758     147.450     163.495
  H     -245.983     147.561     168.366
  H     -242.367     147.327     168.232
  H     -244.792     147.227     169.738
  H     -245.185     144.946     169.214
  H     -242.178     144.486     169.636
  H     -242.406     142.549     168.391
  H     -243.959     142.528     169.266
  H     -245.736     149.264     162.379
  H     -246.734     149.235     163.831
  P     -245.435     143.555     171.422
  C     -246.989     145.532     172.113
  O     -246.866     144.273     171.463
  O     -245.150     143.186     172.953
  O     -245.370     142.356     170.539
  H     -245.308     142.232     173.099
  H     -248.003     145.869     172.049
  H     -246.346     146.243     171.638
  H     -246.711     145.431     173.141

 6  7  8  9  10  11  12  13  14  15  25  28  32  33  34  35 0
 6-311+G(2d,p)
 ****
 36  37  40 0
 6-311+G(2d,p)
 ****
 1  2  3  4  5  16  17  18  19  20  21  22  23  24 0
 3-21G
 ****
 26  27  29  30  31  38  39 41  42  43  44  45  46  47  48 0
 3-21G
 ****


