%nproc=1
%NoSave
%Mem=1900MB
#P OB98/GEN NMR

erre ene a

0 1
  C     -700.755    1772.537     259.584
  O     -701.414    1773.765     259.758
  H     -701.090    1771.849     260.374
  H     -699.690    1772.669     259.670
  H     -701.019    1772.095     258.608
  P     -701.219    1774.921     258.662
  C     -703.220    1773.888     257.361
  O     -701.882    1774.390     257.283
  C     -703.896    1773.956     255.975
  O     -704.137    1775.333     255.634
  C     -703.030    1773.315     254.862
  O     -703.883    1772.639     253.967
  C     -702.408    1774.528     254.181
  O     -702.093    1774.270     252.824
  C     -703.500    1775.584     254.360
  N     -702.996    1779.710     251.465
  C     -703.704    1778.533     251.246
  N     -704.317    1778.445     250.051
  N     -703.749    1777.553     252.084
  C     -703.073    1777.803     253.241
  C     -702.351    1778.903     253.584
  C     -702.282    1779.986     252.635
  O     -701.670    1781.045     252.789
  N     -701.823    1778.763     254.868
  C     -702.190    1777.563     255.246
  N     -702.960    1776.942     254.319
  O     -699.832    1775.426     258.512
  O     -702.218    1776.078     259.103
  H     -702.900    1773.887     252.402
  H     -701.729    1776.829     259.498
  H     -702.973    1780.421     250.801
  H     -701.951    1777.108     256.202
  H     -704.266    1775.523     253.580
  H     -701.497    1774.845     254.712
  H     -704.346    1779.183     249.363
  H     -702.282    1772.636     255.264
  H     -704.873    1777.600     249.856
  H     -704.861    1773.433     256.053
  H     -703.753    1774.549     258.065
  H     -703.212    1772.886     257.751
  P     -704.123    1771.036     254.157
  C     -706.661    1771.362     254.458
  O     -705.460    1770.833     255.011
  O     -702.915    1770.297     254.630
  O     -704.555    1770.567     252.680
  H     -704.214    1769.667     252.541
  H     -707.477    1771.162     255.121
  H     -706.850    1770.902     253.510
  H     -706.558    1772.419     254.328

 6  7  8  9  10  11  12  13  14  15  26  29  33  34 0
 6-311+G(2d,p)
 ****
 36  38  39  40  41 0
 6-311+G(2d,p)
 ****
 1  2  3  4  5  16  17  18  19  20  21  22  23  24  25 0
 3-21G
 ****
 27  28  30  31  32  35  37  42  43  44  45  46  47 0
 3-21G
 ****
 48  49 0
 3-21G
 ****


