%nproc=1
%NoSave
%Mem=1900MB
#P OB98/GEN NMR

erre ene a

0 1
  C      430.930    -216.651    -313.233
  O      431.021    -217.154    -311.895
  P      429.864    -216.957    -310.795
  C      430.303    -219.262    -309.710
  O      429.356    -218.415    -310.343
  C      429.601    -220.302    -308.837
  O      429.077    -219.684    -307.639
  C      428.392    -220.977    -309.464
  O      428.754    -221.917    -310.465
  C      427.716    -221.590    -308.235
  O      428.293    -222.864    -307.909
  C      428.045    -220.564    -307.137
  N      426.883    -219.811    -306.702
  C      426.806    -219.497    -305.340
  O      427.659    -219.924    -304.560
  N      425.764    -218.719    -304.898
  C      424.822    -218.381    -305.719
  N      423.823    -217.600    -305.235
  C      424.791    -218.809    -307.135
  C      425.840    -219.510    -307.554
  O      428.761    -216.047    -311.237
  O      430.606    -216.383    -309.499
  H      429.974    -215.864    -308.968
  H      429.259    -222.727    -307.844
  H      423.964    -218.536    -307.778
  H      425.904    -219.846    -308.583
  H      428.491    -221.070    -306.274
  H      426.646    -221.751    -308.395
  H      427.731    -220.210    -309.895
  H      430.348    -221.061    -308.540
  H      423.880    -217.315    -304.260
  H      430.957    -218.648    -309.079
  H      423.057    -217.264    -305.794
  H      430.920    -219.750    -310.478
  P      428.178    -221.662    -311.940
  C      430.609    -221.004    -312.585
  O      429.232    -220.730    -312.714
  O      426.918    -220.705    -311.698
  O      427.788    -222.905    -312.674
  H      426.198    -220.957    -312.305
  H      431.123    -220.659    -313.485
  H      430.796    -222.076    -312.465
  H      430.999    -220.467    -311.720
  H      431.818    -216.907    -313.771
  H      430.823    -215.587    -313.207
  H      430.081    -217.083    -313.720

 3  4  5  6  7  8  9  10  11  12  13  24  27  28  29  30  32 0
 6-311+G(2d,p)
 ****
 34  35 0
 6-311+G(2d,p)
 ****
 1  2  14  15  16  17  18  19  20  21  22  23  25  26 0
 3-21G
 ****
 31  33  36  37  38  39  40  41  42  43  44  45  46 0
 3-21G
 ****


