%nproc=1
%NoSave
%Mem=1900MB
#P OB98/GEN NMR

erre ene a

0 1
  C     -552.386    -201.320    -431.823
  O     -552.529    -201.680    -433.180
  H     -552.599    -202.194    -431.198
  H     -553.094    -200.525    -431.560
  H     -551.365    -200.986    -431.625
  P     -552.364    -200.509    -434.263
  C     -550.927    -202.177    -435.642
  O     -551.967    -201.211    -435.649
  C     -550.991    -203.006    -436.922
  O     -551.098    -202.125    -438.074
  C     -549.755    -203.854    -437.183
  O     -549.738    -205.043    -436.411
  C     -549.892    -204.127    -438.670
  O     -550.751    -205.245    -438.927
  C     -550.514    -202.814    -439.191
  N     -549.529    -201.990    -439.893
  C     -550.051    -201.005    -440.723
  O     -551.259    -200.812    -440.878
  N     -549.133    -200.260    -441.414
  C     -547.780    -200.436    -441.391
  O     -547.020    -199.772    -442.076
  C     -547.289    -201.503    -440.507
  C     -548.175    -202.227    -439.812
  O     -551.018    -199.777    -433.805
  O     -553.518    -199.564    -434.347
  H     -551.236    -198.918    -433.395
  H     -550.980    -205.192    -439.876
  H     -549.493    -199.539    -442.018
  H     -546.219    -201.676    -440.466
  H     -547.838    -203.028    -439.160
  H     -551.335    -203.032    -439.889
  H     -548.927    -204.348    -439.117
  H     -548.843    -203.261    -437.013
  H     -551.892    -203.634    -436.890
  H     -551.049    -202.848    -434.782
  H     -549.963    -201.665    -435.552
  P     -548.309    -205.597    -435.925
  C     -549.584    -206.396    -433.764
  O     -548.622    -206.668    -434.774
  O     -547.745    -204.317    -435.147
  O     -547.452    -206.078    -437.046
  H     -548.467    -203.759    -434.798
  H     -549.645    -207.230    -433.096
  H     -550.539    -206.231    -434.217
  H     -549.292    -205.523    -433.219

 6  7  8  9  10  11  12  13  14  15  16  27  31  32  33  34  35 0
 6-311+G(2d,p)
 ****
 36  37 0
 6-311+G(2d,p)
 ****
 1  2  3  4  5  17  18  19  20  21  22  23  24  25 0
 3-21G
 ****
 26  28  29  30  38  39  40  41  42  43  44  45 0
 3-21G
 ****


