%nproc=1
%NoSave
%Mem=1900MB
#P OB98/GEN NMR

erre ene a

0 1
  C      414.588     -64.133    -433.102
  O      415.412     -62.982    -432.917
  P      416.613     -63.146    -431.860
  C      417.259     -62.115    -429.571
  O      416.346     -62.116    -430.656
  C      416.519     -62.030    -428.230
  O      415.901     -60.714    -428.060
  C      415.399     -63.071    -428.072
  O      415.370     -63.448    -426.690
  C      414.162     -62.267    -428.438
  O      412.950     -62.885    -428.029
  C      414.504     -60.943    -427.765
  N      413.591     -55.956    -427.189
  C      414.466     -56.792    -426.580
  N      414.640     -58.115    -426.786
  C      413.805     -58.557    -427.743
  C      412.862     -57.830    -428.450
  C      412.765     -56.460    -428.142
  N      411.869     -55.603    -428.738
  N      412.174     -58.644    -429.337
  C      412.654     -59.862    -429.111
  N      413.693     -59.837    -428.218
  O      417.874     -62.523    -432.627
  O      416.849     -64.558    -431.434
  H      412.233     -62.217    -428.004
  H      418.421     -63.229    -433.012
  H      415.096     -56.341    -425.818
  H      412.287     -60.768    -429.554
  H      414.401     -60.994    -426.672
  H      414.119     -62.150    -429.527
  H      415.547     -63.969    -428.689
  H      417.256     -62.146    -427.418
  H      417.947     -61.263    -429.655
  H      411.874     -54.641    -428.448
  H      411.238     -55.941    -429.443
  H      417.878     -63.017    -429.622
  P      415.073     -64.982    -426.314
  C      413.002     -66.470    -426.611
  O      413.691     -65.319    -427.064
  O      414.575     -64.816    -424.800
  O      416.204     -65.935    -426.486
  H      413.895     -64.129    -424.725
  H      412.048     -66.535    -427.138
  H      412.806     -66.395    -425.534
  H      413.591     -67.362    -426.829
  H      413.826     -63.915    -433.821
  H      414.133     -64.400    -432.171
  H      415.187     -64.948    -433.453

 3  4  5  6  7  8  9  10  11  12  22  25  29  30  31  32 0
 6-311+G(2d,p)
 ****
 33  36  37 0
 6-311+G(2d,p)
 ****
 1  2  13  14  15  16  17  18  19  20  21  23  24  26 0
 3-21G
 ****
 27  28  34  35  38  39  40  41  42  43  44  45  46  47  48 0
 3-21G
 ****


