%nproc=1
%NoSave
%Mem=1900MB
#P OB98/GEN NMR

erre ene a

0 1
  C     -261.582     465.445    -511.246
  O     -260.316     465.137    -511.793
  H     -261.481     466.206    -510.469
  H     -262.224     465.836    -512.040
  H     -262.043     464.546    -510.829
  P     -259.205     464.583    -510.776
  C     -258.252     463.192    -512.747
  O     -257.967     464.071    -511.668
  C     -257.133     463.259    -513.784
  O     -257.320     464.454    -514.581
  C     -255.715     463.298    -513.190
  O     -254.940     462.202    -513.688
  C     -255.118     464.588    -513.720
  O     -253.750     464.459    -514.109
  C     -256.010     464.931    -514.909
  N     -253.221     468.858    -516.566
  C     -253.101     467.532    -516.774
  N     -253.938     466.543    -516.391
  C     -255.010     467.049    -515.754
  C     -255.278     468.380    -515.488
  C     -254.314     469.312    -515.907
  N     -254.406     470.663    -515.648
  N     -256.470     468.511    -514.800
  C     -256.891     467.276    -514.614
  N     -256.028     466.358    -515.158
  O     -259.855     463.225    -510.225
  O     -258.842     465.511    -509.667
  H     -253.256     464.192    -513.309
  H     -259.783     463.199    -509.253
  H     -252.212     467.214    -517.308
  H     -257.776     466.985    -514.065
  H     -255.684     464.426    -515.828
  H     -255.181     465.357    -512.941
  H     -255.713     463.285    -512.094
  H     -257.238     462.400    -514.459
  H     -259.194     463.489    -513.221
  H     -253.617     471.237    -515.883
  H     -255.166     470.988    -515.065
  H     -258.364     462.174    -512.360
  P     -253.998     461.440    -512.628
  C     -254.038     459.208    -513.964
  O     -253.252     460.257    -513.411
  O     -255.056     460.662    -511.705
  O     -253.125     462.349    -511.832
  H     -254.681     460.521    -510.816
  H     -253.398     458.502    -514.451
  H     -254.726     459.615    -514.675
  H     -254.581     458.719    -513.182

 6  7  8  9  10  11  12  13  14  15  25  28  32  33  34  35 0
 6-311+G(2d,p)
 ****
 36  39  40 0
 6-311+G(2d,p)
 ****
 1  2  3  4  5  16  17  18  19  20  21  22  23  24 0
 3-21G
 ****
 26  27  29  30  31  37  38  41  42  43  44  45  46  47  48 0
 3-21G
 ****


