%nproc=1
%NoSave
%Mem=1900MB
#P OB98/GEN NMR

erre ene a

0 1
  C       23.162     -12.819    -515.397
  O       23.116     -11.523    -515.971
  P       21.745     -10.690    -515.999
  C       22.019      -9.147    -513.958
  O       21.401     -10.323    -514.473
  C       21.029      -8.343    -513.124
  O       20.078      -7.705    -514.005
  C       20.240      -9.192    -512.130
  O       20.021      -8.439    -510.931
  C       18.894      -9.408    -512.811
  O       17.855      -9.650    -511.850
  C       18.749      -8.107    -513.606
  N       16.095      -5.697    -517.279
  C       16.833      -5.223    -516.254
  N       17.493      -5.924    -515.302
  C       17.378      -7.244    -515.517
  C       16.654      -7.867    -516.527
  C       15.989      -7.037    -517.438
  N       15.251      -7.516    -518.498
  N       16.750      -9.244    -516.409
  C       17.520      -9.442    -515.362
  N       17.934      -8.263    -514.794
  O       20.628     -11.334    -516.743
  O       22.145      -9.275    -516.629
  H       18.203     -10.302    -511.207
  H       21.435      -8.953    -517.216
  H       16.904      -4.144    -516.187
  H       17.802     -10.411    -514.969
  H       18.323      -7.300    -512.993
  H       18.950     -10.280    -513.470
  H       20.733     -10.143    -511.891
  H       21.575      -7.551    -512.594
  H       22.356      -8.535    -514.801
  H       14.908      -6.850    -519.167
  H       15.317      -8.503    -518.720
  H       22.898      -9.427    -513.362
  P       19.661      -9.298    -509.621
  C       22.117      -9.707    -508.862
  O       20.932     -10.247    -509.394
  O       18.326      -9.950    -509.724
  O       19.769      -8.171    -508.482
  H       20.365      -7.441    -508.751
  H       22.875     -10.496    -508.815
  H       21.939      -9.333    -507.847
  H       22.491      -8.892    -509.494
  H       24.156     -13.208    -515.474
  H       22.485     -13.464    -515.918
  H       22.880     -12.763    -514.366

 3  4  5  6  7  8  9  10  11  12  22  25  29  30  31  32 0
 6-311+G(2d,p)
 ****
 33  36  37 0
 6-311+G(2d,p)
 ****
 1  2  13  14  15  16  17  18  19  20  21  23  24  26 0
 3-21G
 ****
 27  28  34  35  38  39  40  41  42  43  44  45  46  47  48 0
 3-21G
 ****


