%nproc=1
%NoSave
%Mem=1900MB
#P OB98/GEN NMR

erre ene a

0 1
  C      235.904     -61.234    -178.134
  O      234.602     -60.694    -178.020
  H      235.833     -62.325    -178.142
  H      236.516     -60.925    -177.282
  H      236.370     -60.904    -179.069
  P      234.495     -59.093    -177.967
  C      232.982     -59.269    -175.865
  O      234.160     -58.720    -176.442
  C      233.093     -59.288    -174.344
  O      234.067     -60.266    -173.915
  C      233.511     -57.958    -173.725
  O      232.400     -57.091    -173.578
  C      234.077     -58.417    -172.387
  O      233.030     -58.660    -171.427
  C      234.783     -59.726    -172.771
  N      239.151     -62.172    -173.442
  C      237.890     -62.659    -173.170
  N      237.787     -63.996    -173.001
  N      236.823     -61.906    -173.065
  C      237.088     -60.588    -173.226
  C      238.291     -59.983    -173.513
  C      239.452     -60.832    -173.659
  O      240.586     -60.469    -173.961
  N      238.151     -58.624    -173.620
  C      236.874     -58.403    -173.361
  N      236.190     -59.564    -173.098
  O      233.118     -58.785    -178.727
  O      235.637     -58.355    -178.578
  H      232.711     -57.810    -171.078
  H      233.185     -57.918    -179.168
  H      239.925     -62.803    -173.529
  H      236.402     -57.431    -173.350
  H      234.730     -60.473    -171.971
  H      234.734     -57.665    -171.951
  H      238.584     -64.561    -172.744
  H      234.305     -57.487    -174.316
  H      236.867     -64.360    -172.782
  H      232.119     -59.606    -173.947
  H      232.852     -60.293    -176.228
  H      232.117     -58.670    -176.172
  P      232.419     -55.708    -174.395
  C      230.713     -54.736    -172.688
  O      231.950     -54.568    -173.368
  O      231.171     -55.845    -175.386
  O      233.690     -55.434    -175.127
  H      231.244     -55.195    -176.107
  H      230.543     -53.898    -172.044
  H      230.745     -55.633    -172.105
  H      229.919     -54.804    -173.403

 6  7  8  9  10  11  12  13  14  15  26  29  33  34 0
 6-311+G(2d,p)
 ****
 36  38  39  40  41 0
 6-311+G(2d,p)
 ****
 1  2  3  4  5  16  17  18  19  20  21  22  23  24  25 0
 3-21G
 ****
 27  28  30  31  32  35  37  42  43  44  45  46  47 0
 3-21G
 ****
 48  49 0
 3-21G
 ****


