%nproc=1
%NoSave
%Mem=1900MB
#P OB98/GEN NMR

erre ene a

0 1
  C      -67.136    -899.230     477.796
  O      -66.683    -897.970     477.307
  H      -66.794    -900.000     477.073
  H      -68.219    -899.240     477.848
  H      -66.691    -899.450     478.766
  P      -66.937    -896.660     478.201
  C      -69.174    -896.020     477.088
  O      -68.547    -896.460     478.284
  C      -70.664    -895.780     477.314
  O      -70.817    -894.700     478.282
  C      -71.440    -895.420     476.051
  O      -72.733    -896.020     476.116
  C      -71.602    -893.910     476.132
  O      -72.741    -893.420     475.451
  C      -71.690    -893.710     477.671
  N      -73.350    -889.050     478.739
  C      -74.051    -890.230     478.469
  N      -75.399    -890.120     478.430
  N      -73.468    -891.360     478.229
  C      -72.132    -891.340     478.293
  C      -71.293    -890.250     478.566
  C      -71.948    -888.970     478.825
  O      -71.415    -887.890     479.069
  N      -69.986    -890.590     478.530
  C      -69.992    -891.870     478.210
  N      -71.251    -892.360     478.057
  O      -66.179    -895.440     477.809
  O      -66.568    -897.150     479.693
  H      -72.813    -892.470     475.672
  H      -65.667    -896.830     479.938
  H      -73.827    -888.200     478.914
  H      -69.103    -892.490     478.090
  H      -72.694    -893.830     478.056
  H      -70.692    -893.400     475.742
  H      -75.895    -889.270     478.633
  H      -70.901    -895.710     475.127
  H      -75.941    -890.990     478.253
  H      -71.074    -896.690     477.792
  H      -69.032    -896.790     476.325
  H      -68.676    -895.080     476.737
  P      -72.894    -897.530     475.528
  C      -73.967    -896.530     473.415
  O      -72.987    -897.450     473.938
  O      -73.936    -898.360     476.223
  O      -71.418    -898.160     475.785
  H      -71.505    -899.110     475.935
  H      -73.945    -896.556     472.346
  H      -73.743    -895.540     473.753
  H      -74.940    -896.812     473.759

 6  7  8  9  10  11  12  13  14  15  26  29  33  34 0
 6-311+G(2d,p)
 ****
 36  38  39  40  41 0
 6-311+G(2d,p)
 ****
 1  2  3  4  5  16  17  18  19  20  21  22  23  24  25 0
 3-21G
 ****
 27  28  30  31  32  35  37  42  43  44  45  46  47 0
 3-21G
 ****
 48  49 0
 3-21G
 ****


