%nproc=1
%NoSave
%Mem=1900MB
#P OB98/GEN NMR

erre ene a

0 1
  C     -787.374    -195.098     377.632
  O     -787.257    -195.084     379.045
  P     -788.281    -195.911     379.961
  C     -787.492    -194.852     382.191
  O     -788.546    -194.973     381.246
  C     -787.894    -193.870     383.296
  O     -787.776    -192.527     382.801
  C     -789.323    -194.029     383.773
  O     -789.466    -195.147     384.636
  C     -789.546    -192.666     384.437
  O     -788.971    -192.642     385.744
  C     -788.771    -191.719     383.486
  N     -789.624    -191.025     382.531
  C     -790.243    -189.851     383.001
  O     -790.043    -189.441     384.139
  N     -791.049    -189.147     382.129
  C     -791.232    -189.579     380.917
  N     -791.974    -188.806     380.082
  C     -790.650    -190.841     380.412
  C     -789.861    -191.494     381.268
  O     -787.849    -197.306     380.287
  O     -789.680    -195.842     379.187
  H     -789.346    -191.883     386.207
  H     -789.793    -196.565     378.529
  H     -790.849    -191.168     379.400
  H     -789.376    -192.421     380.959
  H     -788.204    -190.977     384.079
  H     -790.613    -192.392     384.540
  H     -790.005    -194.130     382.922
  H     -787.192    -193.997     384.139
  H     -792.202    -187.874     380.407
  H     -786.599    -194.477     381.681
  H     -791.927    -188.919     379.075
  H     -787.258    -195.845     382.608
  P     -790.914    -195.835     384.701
  C     -789.721    -197.152     386.604
  O     -790.952    -196.655     386.087
  O     -790.805    -196.980     383.576
  O     -792.067    -194.911     384.464
  H     -791.287    -196.694     382.759
  H     -789.888    -197.459     387.648
  H     -788.960    -196.381     386.581
  H     -789.413    -198.028     386.032
  H     -786.604    -194.490     377.204
  H     -788.331    -194.712     377.350
  H     -787.275    -196.102     377.276

 3  4  5  6  7  8  9  10  11  12  13  23  27  28  29  30  32 0
 6-311+G(2d,p)
 ****
 34  35 0
 6-311+G(2d,p)
 ****
 1  2  14  15  16  17  18  19  20  21  22  24  25  26 0
 3-21G
 ****
 31  33  36  37  38  39  40  41  42  43  44  45  46 0
 3-21G
 ****


