%nproc=1
%NoSave
%Mem=1900MB
#P OB98/GEN NMR

erre ene a

0 1
  C       72.948      98.277    -897.660
  O       72.352      96.998    -897.590
  H       72.170      99.037    -897.580
  H       73.452      98.398    -898.630
  H       73.664      98.412    -896.850
  P       73.346      95.734    -897.520
  C       72.891      93.190    -897.020
  O       72.392      94.437    -897.480
  C       71.761      92.364    -896.400
  O       71.246      93.076    -895.230
  C       70.586      92.104    -897.340
  O       70.053      90.803    -897.070
  C       69.558      93.159    -896.920
  O       68.240      92.793    -897.280
  C       69.827      93.236    -895.410
  N       69.364      94.497    -894.810
  C       68.423      94.389    -893.770
  O       68.044      93.274    -893.400
  N       67.924      95.540    -893.210
  C       68.274      96.692    -893.690
  N       67.717      97.800    -893.110
  C       69.208      96.849    -894.820
  C       69.715      95.733    -895.320
  O       73.903      95.841    -896.020
  O       74.401      95.722    -898.570
  H       68.201      92.648    -898.250
  H       73.208      96.026    -895.360
  H       69.464      97.848    -895.200
  H       70.433      95.752    -896.140
  H       69.330      92.414    -894.870
  H       69.796      94.132    -897.400
  H       70.865      92.191    -898.390
  H       72.183      91.422    -896.030
  H       67.057      97.637    -892.350
  H       73.677      93.353    -896.260
  H       67.862      98.729    -893.430
  H       73.329      92.655    -897.870
  P       70.156      89.679    -898.210
  C       70.177      87.094    -898.350
  O       69.900      88.240    -897.550
  O       71.326      89.761    -899.120
  O       68.782      89.906    -899.040
  H       68.994      89.801    -900.000
  H       69.964      86.208    -897.790
  H       71.209      87.097    -898.633
  H       69.567      87.116    -899.228

 6  7  8  9  10  11  12  13  14  15  16  26  30  31  32  33  35 0
 6-311+G(2d,p)
 ****
 37  38 0
 6-311+G(2d,p)
 ****
 1  2  3  4  5  17  18  19  20  21  22  23  24  25 0
 3-21G
 ****
 27  28  29  34  36  39  40  41  42  43  44  45  46 0
 3-21G
 ****


