%nproc=1
%NoSave
%Mem=1900MB
#P OB98/GEN NMR

erre ene a

0 1
  C       14.392    -126.815      -7.256
  O       14.888    -126.556      -8.555
  H       14.920    -126.173      -6.547
  H       14.565    -127.859      -6.981
  H       13.324    -126.588      -7.204
  P       14.301    -127.405      -9.779
  C       14.777    -129.762     -10.720
  O       14.854    -128.899      -9.593
  C       15.014    -131.209     -10.296
  O       16.351    -131.371      -9.785
  C       14.071    -131.704      -9.200
  O       12.824    -132.093      -9.750
  C       14.866    -132.884      -8.663
  O       14.744    -134.000      -9.568
  C       16.305    -132.337      -8.697
  N       19.102    -132.781      -4.487
  C       18.791    -133.724      -5.447
  N       19.268    -134.970      -5.240
  N       18.069    -133.472      -6.507
  C       17.601    -132.204      -6.547
  C       17.824    -131.185      -5.649
  C       18.681    -131.460      -4.514
  O       19.001    -130.645      -3.654
  N       17.107    -130.062      -5.973
  C       16.493    -130.384      -7.095
  N       16.752    -131.678      -7.482
  O       14.536    -126.837     -11.146
  O       12.742    -127.549      -9.448
  H       15.198    -134.756      -9.152
  H       12.228    -126.830      -9.859
  H       19.657    -133.035      -3.687
  H       15.856    -129.721      -7.668
  H       17.037    -133.119      -8.922
  H       14.518    -133.221      -7.686
  H       19.700    -135.259      -4.376
  H       13.957    -130.962      -8.403
  H       19.002    -135.687      -5.904
  H       14.935    -131.838     -11.192
  H       15.543    -129.443     -11.432
  H       13.797    -129.677     -11.200
  P       11.499    -132.180      -8.845
  C       10.584    -134.266      -7.618
  O       11.714    -133.459      -7.901
  O       10.220    -132.177      -9.608
  O       11.648    -130.975      -7.809
  H       11.318    -130.114      -8.169
  H       10.874    -135.076      -6.982
  H       10.186    -134.655      -8.532
  H        9.839    -133.676      -7.127

 6  7  8  9  10  11  12  13  14  15  26  29  33  34 0
 6-311+G(2d,p)
 ****
 36  38  39  40  41 0
 6-311+G(2d,p)
 ****
 1  2  3  4  5  16  17  18  19  20  21  22  23  24  25 0
 3-21G
 ****
 27  28  30  31  32  35  37  42  43  44  45  46  47 0
 3-21G
 ****
 48  49 0
 3-21G
 ****


