%nproc=1
%NoSave
%Mem=1900MB
#P OB98/GEN NMR

erre ene a

0 1
  C     -307.226     382.791     139.385
  O     -306.057     383.356     138.824
  H     -307.962     382.650     138.588
  H     -307.651     383.459     140.138
  H     -307.004     381.818     139.832
  P     -304.823     383.666     139.800
  C     -303.513     384.360     137.686
  O     -303.890     384.704     139.011
  C     -302.379     385.262     137.212
  O     -302.869     386.589     136.948
  C     -301.244     385.412     138.225
  O     -300.371     384.295     138.161
  C     -300.606     386.701     137.731
  O     -299.811     386.430     136.559
  C     -301.843     387.534     137.358
  N     -304.294     391.814     138.526
  C     -303.871     391.340     137.297
  N     -304.097     392.145     136.237
  N     -303.264     390.197     137.132
  C     -303.045     389.533     138.290
  C     -303.402     389.906     139.566
  C     -304.122     391.151     139.733
  O     -304.532     391.600     140.800
  N     -302.952     389.008     140.498
  C     -302.359     388.072     139.782
  N     -302.374     388.351     138.438
  O     -304.083     382.475     140.332
  O     -305.461     384.551     140.967
  H     -299.136     385.781     136.826
  H     -305.748     383.995     141.714
  H     -304.741     392.715     138.591
  H     -301.903     387.176     140.187
  H     -301.652     388.202     136.511
  H     -299.952     387.164     138.469
  H     -304.292     393.134     136.347
  H     -301.623     385.578     139.239
  H     -303.749     391.841     135.337
  H     -302.004     384.862     136.263
  H     -304.395     384.485     137.048
  H     -303.193     383.313     137.641
  P     -300.289     383.236     139.367
  C     -297.975     382.393     138.593
  O     -298.724     383.022     139.623
  O     -301.069     381.982     139.152
  O     -300.743     384.065     140.656
  H     -301.717     384.051     140.812
  H     -296.951     382.314     138.894
  H     -298.040     382.976     137.698
  H     -298.370     381.415     138.411

 6  7  8  9  10  11  12  13  14  15  26  29  33  34 0
 6-311+G(2d,p)
 ****
 36  38  39  40  41 0
 6-311+G(2d,p)
 ****
 1  2  3  4  5  16  17  18  19  20  21  22  23  24  25 0
 3-21G
 ****
 27  28  30  31  32  35  37  42  43  44  45  46  47 0
 3-21G
 ****
 48  49 0
 3-21G
 ****


