%nproc=1
%NoSave
%Mem=1900MB
#P OB98/GEN NMR

erre ene a

0 1
  C     -432.423    -391.210     133.537
  O     -433.421    -392.215     133.418
  P     -434.067    -392.449     131.958
  C     -436.576    -391.795     131.929
  O     -435.222    -391.352     131.817
  C     -437.036    -391.740     133.375
  O     -436.757    -390.434     133.932
  C     -438.541    -391.935     133.570
  O     -438.897    -393.320     133.546
  C     -438.739    -391.341     134.950
  O     -438.383    -392.314     135.959
  C     -437.742    -390.174     134.957
  N     -439.624    -385.949     137.046
  C     -439.057    -387.066     137.641
  N     -438.966    -387.033     138.989
  N     -438.637    -388.111     136.981
  C     -438.765    -387.985     135.634
  C     -439.308    -386.934     134.917
  C     -439.825    -385.809     135.672
  O     -440.392    -384.827     135.199
  N     -439.256    -387.165     133.574
  C     -438.642    -388.331     133.467
  N     -438.354    -388.885     134.691
  O     -434.868    -393.825     132.134
  O     -433.078    -392.516     130.836
  H     -438.994    -393.060     135.856
  H     -434.957    -394.264     131.261
  H     -439.923    -385.171     137.597
  H     -438.385    -388.811     132.523
  H     -437.202    -390.118     135.911
  H     -439.785    -391.058     135.145
  H     -439.148    -386.206     139.542
  H     -439.110    -391.359     132.837
  H     -438.514    -387.821     139.447
  H     -436.473    -392.487     133.953
  H     -436.638    -392.830     131.578
  H     -437.212    -391.174     131.294
  P     -440.409    -393.659     133.124
  C     -442.016    -394.790     134.815
  O     -441.243    -393.648     134.492
  O     -440.325    -395.205     132.721
  O     -440.944    -392.811     132.019
  H     -441.034    -395.433     132.084
  H     -441.533    -395.715     134.506
  H     -442.998    -394.713     134.345
  H     -442.158    -394.816     135.902
  H     -432.084    -391.162     134.551
  H     -432.834    -390.264     133.253
  H     -431.599    -391.448     132.897

 3  4  5  6  7  8  9  10  11  12  23  26  30  31  33  0
 6-311+G(2d,p)
 ****
 35  36  37  38 0
 6-311+G(2d,p)
 ****
 1  2  13  14  15  16  17  18  19  20  21  22  24  25  27  28  29 0
 3-21G
 ****
 32  34  39  40  41  42  43  44  45  46  47  48  49 0
 3-21G
 ****


