%nproc=1
%NoSave
%Mem=1900MB
#P OB98/GEN NMR

erre ene a

0 1
  C       42.694     160.432     260.263
  O       44.104     160.371     260.264
  H       42.308     159.525     260.733
  H       42.325     160.483     259.238
  H       42.338     161.297     260.827
  P       44.935     161.700     259.935
  C       47.023     161.322     258.463
  O       46.471     161.265     259.770
  C       48.299     160.473     258.374
  O       49.280     161.001     259.311
  C       48.036     159.020     258.773
  O       48.942     158.118     258.136
  C       48.319     159.026     260.267
  O       48.644     157.731     260.780
  C       49.468     160.029     260.353
  N       51.209     164.048     262.970
  C       51.529     163.628     261.694
  N       52.435     164.391     261.022
  N       51.031     162.558     261.130
  C       50.201     161.863     261.942
  C       49.819     162.161     263.233
  C       50.355     163.366     263.827
  O       50.123     163.769     264.965
  N       48.970     161.210     263.738
  C       48.835     160.336     262.759
  N       49.542     160.702     261.643
  O       44.948     162.492     261.326
  O       44.387     162.546     258.824
  H       47.930     157.122     260.513
  H       45.107     163.440     261.175
  H       51.600     164.895     263.341
  H       48.228     159.442     262.804
  H       50.428     159.536     260.184
  H       47.418     159.359     260.787
  H       52.978     165.096     261.486
  H       47.016     158.706     258.569
  H       52.903     163.936     260.231
  H       48.742     160.563     257.373
  H       47.241     162.374     258.252
  H       46.288     160.989     257.726
  P       48.413     156.650     257.762
  C       50.372     154.987     258.395
  O       49.653     155.699     257.413
  O       47.683     156.850     256.356
  O       47.502     156.039     258.785
  H       46.725     156.668     256.440
  H       51.152     154.423     257.927
  H       49.710     154.322     258.910
  H       50.800     155.676     259.093

 6  7  8  9  10  11  12  13  14  15  26  29  33  34 0
 6-311+G(2d,p)
 ****
 36  38  39  40  41 0
 6-311+G(2d,p)
 ****
 1  2  3  4  5  16  17  18  19  20  21  22  23  24  25 0
 3-21G
 ****
 27  28  30  31  32  35  37  42  43  44  45  46  47 0
 3-21G
 ****
 48  49 0
 3-21G
 ****


