%nproc=1
%NoSave
%Mem=1900MB
#P OB98/GEN NMR

erre ene a

0 1
  C      -14.952     -11.761      14.941
  O      -14.882     -10.746      13.962
  H      -14.138     -11.618      15.656
  H      -14.831     -12.737      14.465
  H      -15.904     -11.721      15.477
  P      -16.148     -10.575      12.995
  C      -15.368      -8.162      12.467
  O      -15.786      -9.413      11.945
  C      -14.985      -7.213      11.331
  O      -13.751      -7.682      10.728
  C      -16.040      -7.120      10.221
  O      -16.108      -5.767       9.761
  C      -15.477      -8.005       9.124
  O      -15.955      -7.645       7.829
  C      -13.978      -7.802       9.312
  N      -12.133      -9.749       5.047
  C      -12.781      -8.551       5.274
  N      -12.973      -7.753       4.202
  N      -13.204      -8.169       6.450
  C      -12.910      -9.051       7.436
  C      -12.280     -10.269       7.338
  C      -11.843     -10.693       6.026
  O      -11.285     -11.752       5.758
  N      -12.200     -10.885       8.562
  C      -12.780     -10.041       9.394
  N      -13.220      -8.912       8.760
  O      -17.242      -9.895      13.945
  O      -16.664     -11.836      12.386
  H      -15.576      -8.283       7.188
  H      -17.997     -10.501      14.064
  H      -11.840     -10.000       4.118
  H      -12.914     -10.201      10.455
  H      -13.615      -6.888       8.827
  H      -15.758      -9.049       9.312
  H      -12.632      -7.962       3.278
  H      -17.031      -7.445      10.543
  H      -13.414      -6.852       4.351
  H      -14.775      -6.225      11.757
  H      -14.500      -8.319      13.116
  H      -16.180      -7.725      13.057
  P      -17.122      -4.788      10.529
  C      -15.381      -3.072      11.386
  O      -16.491      -3.311      10.533
  O      -16.996      -5.257      12.055
  O      -18.531      -4.878      10.046
  H      -17.803      -5.732      12.323
  H      -15.067      -2.054      11.286
  H      -14.576      -3.722      11.114
  H      -15.664      -3.260      12.401

 6  7  8  9  10  11  12  13  14  15  26  29  33  34 0
 6-311+G(2d,p)
 ****
 36  38  39  40  41 0
 6-311+G(2d,p)
 ****
 1  2  3  4  5  16  17  18  19  20  21  22  23  24  25 0
 3-21G
 ****
 27  28  30  31  32  35  37  42  43  44  45  46  47 0
 3-21G
 ****
 48  49 0
 3-21G
 ****


