%nproc=1
%NoSave
%Mem=1900MB
#P OB98/GEN NMR

erre ene a

0 1
  C     -897.090      34.284    2248.449
  O     -895.970      33.580    2247.924
  H     -897.970      33.640    2248.351
  H     -897.250      35.193    2247.904
  H     -896.950      34.493    2249.516
  P     -894.520      34.211    2248.114
  C     -893.150      32.005    2248.063
  O     -893.620      33.093    2248.856
  C     -893.790      30.692    2248.528
  O     -895.230      30.746    2248.284
  C     -893.250      29.433    2247.809
  O     -893.350      28.341    2248.716
  C     -894.260      29.296    2246.678
  O     -894.160      28.060    2246.004
  C     -895.550      29.575    2247.448
  N     -896.730      29.858    2246.630
  C     -897.570      28.761    2246.352
  O     -897.370      27.624    2246.747
  N     -898.660      29.071    2245.561
  C     -899.000      30.276    2245.080
  O     -900.000      30.483    2244.392
  C     -898.060      31.374    2245.413
  C     -897.000      31.117    2246.163
  O     -894.460      35.564    2248.737
  O     -893.900      34.211    2246.636
  H     -893.960      35.115    2246.268
  H     -894.240      27.336    2246.643
  H     -899.270      28.285    2245.350
  H     -898.320      32.367    2245.009
  H     -896.300      31.919    2246.417
  H     -895.780      28.758    2248.153
  H     -894.070      30.078    2245.909
  H     -892.210      29.538    2247.478
  H     -893.680      30.597    2249.621
  H     -892.070      31.952    2248.195
  H     -893.410      32.197    2247.018
  P     -892.310      28.096    2249.923
  C     -893.760      27.375    2251.973
  O     -893.080      28.444    2251.312
  O     -891.010      28.810    2249.768
  O     -892.100      26.498    2249.988
  H     -891.220      26.316    2250.380
  H     -894.219      27.743    2252.867
  H     -893.059      26.606    2252.222
  H     -894.512      26.975    2251.325

 6  7  8  9  10  11  12  13  14  15  16  27  31  32  33  34  35 0
 6-311+G(2d,p)
 ****
 36  37 0
 6-311+G(2d,p)
 ****
 1  2  3  4  5  17  18  19  20  21  22  23  24  25 0
 3-21G
 ****
 26  28  29  30  38  39  40  41  42  43  44  45 0
 3-21G
 ****


