%nproc=1
%NoSave
%Mem=1900MB
#P OB98/GEN NMR

erre ene a

0 1
  C     -896.510     -40.386     238.407
  O     -896.390     -41.517     239.248
  H     -895.850     -40.527     237.547
  H     -896.190     -39.485     238.938
  H     -897.530     -40.274     238.047
  P     -897.330     -41.618     240.548
  C     -897.380     -44.136     241.025
  O     -896.820     -42.889     241.384
  C     -896.840     -45.255     241.933
  O     -895.400     -45.335     241.771
  C     -897.130     -45.024     243.425
  O     -897.410     -46.285     244.034
  C     -895.810     -44.486     243.959
  O     -895.640     -44.763     245.347
  C     -894.800     -45.211     243.059
  N     -890.920     -43.385     245.736
  C     -891.980     -44.152     246.144
  N     -892.060     -44.469     247.454
  N     -892.930     -44.580     245.317
  C     -892.720     -44.211     244.038
  C     -891.690     -43.441     243.513
  C     -890.680     -42.970     244.434
  O     -889.710     -42.266     244.131
  N     -891.860     -43.256     242.161
  C     -892.970     -43.900     241.859
  N     -893.540     -44.481     242.973
  O     -898.790     -41.595     240.282
  O     -896.870     -40.381     241.453
  H     -894.690     -44.640     245.558
  H     -897.500     -39.631     241.357
  H     -890.240     -43.081     246.411
  H     -893.420     -43.966     240.878
  H     -894.540     -46.214     243.431
  H     -895.760     -43.399     243.805
  H     -891.370     -44.195     248.131
  H     -897.960     -44.331     243.603
  H     -892.830     -45.051     247.764
  H     -897.260     -46.215     241.597
  H     -897.110     -44.357     239.985
  H     -898.480     -44.086     241.112
  P     -898.910     -46.580     244.508
  C     -898.900     -49.013     243.630
  O     -899.050     -48.155     244.765
  O     -900.000     -45.972     243.672
  O     -898.930     -45.983     246.013
  H     -899.830     -45.689     246.209
  H     -899.015     -50.032     243.935
  H     -897.928     -48.876     243.205
  H     -899.645     -48.773     242.900

 6  7  8  9  10  11  12  13  14  15  26  29  33  34 0
 6-311+G(2d,p)
 ****
 36  38  39  40  41 0
 6-311+G(2d,p)
 ****
 1  2  3  4  5  16  17  18  19  20  21  22  23  24  25 0
 3-21G
 ****
 27  28  30  31  32  35  37  42  43  44  45  46  47 0
 3-21G
 ****
 48  49 0
 3-21G
 ****


