%nproc=1
%NoSave
%Mem=1900MB
#P OB98/GEN NMR

erre ene a

0 1
  C       17.738     -78.585     172.570
  O       16.817     -78.102     173.524
  H       18.673     -78.028     172.670
  H       17.346     -78.426     171.563
  H       17.946     -79.647     172.724
  P       15.467     -78.923     173.790
  C       12.953     -78.400     173.533
  O       14.268     -77.870     173.619
  C       11.960     -77.289     173.185
  O       11.845     -76.401     174.339
  C       12.396     -76.432     171.978
  O       11.224     -76.023     171.263
  C       13.028     -75.240     172.668
  O       13.105     -74.122     171.820
  C       12.099     -75.067     173.866
  N       12.698     -74.216     174.890
  C       12.599     -72.843     174.702
  O       12.052     -72.325     173.729
  N       13.221     -72.063     175.639
  C       14.006     -72.515     176.658
  O       14.604     -71.770     177.421
  C       14.119     -73.978     176.776
  C       13.465     -74.749     175.905
  O       15.422     -79.719     175.051
  O       15.298     -79.836     172.485
  H       13.438     -73.351     172.315
  H       14.715     -80.596     172.676
  H       13.148     -71.065     175.523
  H       14.747     -74.369     177.565
  H       13.540     -75.830     175.951
  H       11.138     -74.635     173.557
  H       14.045     -75.487     172.990
  H       13.081     -76.953     171.306
  H       10.971     -77.730     173.020
  H       12.696     -78.837     174.504
  H       12.924     -79.184     172.770
  P       11.070     -76.263     169.684
  C       10.379     -74.947     167.590
  O       10.891     -74.861     168.916
  O       10.046     -77.289     169.317
  O       12.522     -76.753     169.217
  H       12.425     -77.527     168.630
  H       10.300     -73.964     167.174
  H        9.412     -75.405     167.610
  H       11.040     -75.536     166.990

 6  7  8  9  10  11  12  13  14  15  16  26  31  32  33  34  35 0
 6-311+G(2d,p)
 ****
 36  37 0
 6-311+G(2d,p)
 ****
 1  2  3  4  5  17  18  19  20  21  22  23  24  25 0
 3-21G
 ****
 27  28  29  30  38  39  40  41  42  43  44  45 0
 3-21G
 ****


