%nproc=1
%NoSave
%Mem=1900MB
#P OB98/GEN NMR

erre ene a

0 1
  C     -802.504    -290.362     211.757
  O     -803.269    -290.362     212.940
  H     -802.614    -291.344     211.281
  H     -801.446    -290.205     211.984
  H     -802.867    -289.594     211.067
  P     -803.143    -289.111     213.949
  C     -801.010    -290.240     214.818
  O     -801.581    -289.031     214.320
  C     -799.610    -290.008     215.402
  O     -799.721    -289.246     216.634
  C     -798.861    -291.300     215.732
  O     -797.513    -291.208     215.241
  C     -798.855    -291.341     217.265
  O     -797.779    -292.119     217.769
  C     -798.830    -289.843     217.582
  N     -799.237    -289.563     218.961
  C     -798.338    -289.916     219.970
  O     -797.278    -290.492     219.685
  N     -798.662    -289.679     221.277
  C     -799.823    -289.152     221.564
  N     -800.092    -288.945     222.884
  C     -800.821    -288.793     220.541
  C     -800.465    -289.013     219.265
  O     -804.068    -289.156     215.120
  O     -803.358    -287.823     213.017
  H     -796.931    -291.689     217.505
  H     -803.619    -287.052     213.584
  H     -801.770    -288.361     220.829
  H     -801.133    -288.770     218.448
  H     -797.832    -289.417     217.433
  H     -799.793    -291.788     217.613
  H     -799.320    -292.198     215.316
  H     -799.052    -289.376     214.701
  H     -799.374    -289.203     223.551
  H     -800.963    -290.970     214.002
  H     -800.957    -288.551     223.230
  H     -801.663    -290.632     215.606
  P     -797.217    -291.960     213.854
  C     -797.433    -294.409     214.688
  O     -797.979    -293.378     213.879
  O     -795.667    -292.350     213.963
  O     -797.489    -291.120     212.641
  H     -795.125    -291.716     213.459
  H     -798.040    -295.286     214.606
  H     -797.408    -294.087     215.708
  H     -796.439    -294.631     214.360

 6  7  8  9  10  11  12  13  14  15  16  26  30  31  32  33  35 0
 6-311+G(2d,p)
 ****
 37  38 0
 6-311+G(2d,p)
 ****
 1  2  3  4  5  17  18  19  20  21  22  23  24  25 0
 3-21G
 ****
 27  28  29  34  36  39  40  41  42  43  44  45  46 0
 3-21G
 ****


