%nproc=1
%NoSave
%Mem=1900MB
#P OB98/GEN NMR

erre ene a

0 1
  C     -141.778     111.115    -238.105
  O     -141.428     112.196    -238.979
  P     -142.234     112.477    -240.340
  C     -140.981     110.801    -241.830
  O     -142.240     111.166    -241.271
  C     -141.017     110.654    -243.357
  O     -139.744     110.170    -243.865
  C     -142.095     109.698    -243.890
  O     -142.481     110.213    -245.167
  C     -141.316     108.402    -244.049
  O     -141.948     107.465    -244.913
  C     -139.986     108.934    -244.565
  N     -138.530     104.032    -244.845
  C     -139.624     104.671    -245.312
  N     -139.922     105.984    -245.230
  C     -138.934     106.666    -244.630
  C     -137.756     106.150    -244.111
  C     -137.571     104.761    -244.228
  N     -136.481     104.096    -243.713
  N     -136.995     107.150    -243.538
  C     -137.710     108.248    -243.701
  N     -138.889     108.007    -244.356
  O     -141.815     113.723    -241.053
  O     -143.762     112.604    -239.874
  H     -141.265     106.872    -245.273
  H     -144.164     113.381    -240.305
  H     -140.361     104.044    -245.810
  H     -137.434     109.232    -243.343
  H     -140.035     109.161    -245.636
  H     -141.210     107.923    -243.065
  H     -142.959     109.602    -243.228
  H     -141.158     111.656    -243.780
  H     -140.664     109.850    -241.381
  H     -136.483     103.089    -243.765
  H     -135.823     104.604    -243.141
  H     -140.241     111.561    -241.552
  P     -143.775     111.136    -245.348
  C     -145.501     109.260    -245.581
  O     -145.016     110.310    -244.763
  O     -143.975     111.674    -246.727
  O     -143.582     112.316    -244.280
  H     -144.150     113.071    -244.521
  H     -146.091     109.677    -246.402
  H     -146.135     108.605    -244.979
  H     -144.674     108.670    -245.993
  H     -141.118     111.109    -237.263
  H     -141.692     110.188    -238.632
  H     -142.785     111.241    -237.767

 3  4  5  6  7  8  9  10  11  12  22  25  29  30  31  32 0
 6-311+G(2d,p)
 ****
 33  36  37 0
 6-311+G(2d,p)
 ****
 1  2  13  14  15  16  17  18  19  20  21  23  24  26 0
 3-21G
 ****
 27  28  34  35  38  39  40  41  42  43  44  45  46  47  48 0
 3-21G
 ****


