%nproc=1
%NoSave
%Mem=1900MB
#P OB98/GEN NMR

erre ene a

0 1
  C      114.754    -189.218     -43.682
  O      113.519    -189.318     -42.967
  P      113.602    -189.974     -41.501
  C      112.953    -192.275     -42.509
  O      113.853    -191.552     -41.680
  C      113.379    -193.741     -42.658
  O      114.611    -193.849     -43.433
  C      113.632    -194.450     -41.319
  O      113.227    -195.817     -41.482
  C      115.144    -194.397     -41.194
  O      115.627    -195.357     -40.257
  C      115.539    -194.637     -42.650
  N      120.321    -196.263     -42.644
  C      119.175    -196.873     -42.172
  N      119.317    -198.118     -41.668
  N      117.992    -196.309     -42.191
  C      118.002    -195.076     -42.761
  C      119.067    -194.375     -43.280
  C      120.371    -194.997     -43.221
  O      121.418    -194.505     -43.631
  N      118.666    -193.159     -43.800
  C      117.372    -193.117     -43.530
  N      116.909    -194.270     -42.951
  O      112.093    -189.881     -40.974
  O      114.554    -189.278     -40.584
  H      116.589    -195.199     -40.141
  H      111.995    -189.125     -40.365
  H      121.208    -196.739     -42.586
  H      116.720    -192.284     -43.752
  H      115.429    -195.689     -42.942
  H      115.465    -193.401     -40.860
  H      120.184    -198.634     -41.670
  H      113.119    -194.000     -40.463
  H      118.480    -198.608     -41.352
  H      112.593    -194.273     -43.213
  H      112.905    -191.815     -43.500
  H      111.942    -192.199     -42.091
  P      111.725    -196.209     -41.077
  C      112.264    -195.802     -38.574
  O      111.420    -195.507     -39.668
  O      111.844    -197.761     -40.701
  O      110.708    -195.993     -42.155
  H      111.050    -198.238     -41.017
  H      112.244    -194.962     -37.878
  H      113.299    -195.972     -38.892
  H      111.896    -196.695     -38.060
  H      114.578    -188.769     -44.637
  H      115.168    -190.195     -43.818
  H      115.440    -188.614     -43.126

 3  4  5  6  7  8  9  10  11  12  23  26  30  31 0
 6-311+G(2d,p)
 ****
 33  35  36  37  38 0
 6-311+G(2d,p)
 ****
 1  2  13  14  15  16  17  18  19  20  21  22  24  25 0
 3-21G
 ****
 27  28  29  32  34  39  40  41  42  43  44  45  46  47  48  49 0
 3-21G
 ****


