%nproc=1
%NoSave
%Mem=1900MB
#P OB98/GEN NMR

erre ene a

0 1
  C       61.596       8.617      57.514
  O       61.561       7.418      58.264
  H       60.959       8.496      56.635
  H       62.616       8.830      57.182
  H       61.215       9.450      58.110
  P       62.452       7.321      59.591
  C       64.317       6.070      58.316
  O       63.974       7.207      59.099
  C       65.804       6.093      57.973
  O       66.122       7.261      57.194
  C       66.729       6.121      59.189
  O       66.894       4.818      59.722
  C       68.001       6.658      58.557
  O       68.656       5.608      57.817
  C       67.448       7.717      57.584
  N       69.674      12.254      58.036
  C       70.163      11.078      57.503
  N       71.436      11.106      57.054
  N       69.471       9.971      57.428
  C       68.240      10.070      57.978
  C       67.651      11.174      58.552
  C       68.403      12.412      58.568
  O       67.997      13.483      59.009
  N       66.425      10.870      59.087
  C       66.251       9.596      58.790
  N       67.330       9.060      58.124
  O       62.052       6.265      60.577
  O       62.381       8.790      60.222
  H       68.915       4.923      58.460
  H       61.652       8.862      60.865
  H       70.256      13.074      58.074
  H       65.367       9.016      59.028
  H       68.051       7.794      56.673
  H       68.717       7.029      59.292
  H       72.064      11.879      57.220
  H       66.379       6.833      59.943
  H       71.830      10.237      56.714
  H       66.015       5.219      57.341
  H       63.714       6.104      57.404
  H       64.080       5.148      58.857
  P       66.752       4.530      61.297
  C       69.243       5.175      61.559
  O       67.912       5.393      61.991
  O       66.739       3.089      61.670
  O       65.440       5.332      61.727
  H       64.608       4.816      61.581
  H       69.904       5.815      62.105
  H       69.319       5.392      60.514
  H       69.511       4.154      61.732

 6  7  8  9  10  11  12  13  14  15  26  29  33  34 0
 6-311+G(2d,p)
 ****
 36  38  39  40  41 0
 6-311+G(2d,p)
 ****
 1  2  3  4  5  16  17  18  19  20  21  22  23  24  25 0
 3-21G
 ****
 27  28  30  31  32  35  37  42  43  44  45  46  47 0
 3-21G
 ****
 48  49 0
 3-21G
 ****


