%nproc=1
%NoSave
%Mem=1900MB
#P OB98/GEN NMR

erre ene a

0 1
  C     -129.283     109.747      10.411
  O     -128.653     110.476       9.382
  H     -129.260     110.348      11.325
  H     -128.753     108.810      10.603
  H     -130.324     109.542      10.153
  P     -128.374     109.752       7.974
  C     -125.940     110.511       7.678
  O     -127.282     110.686       7.240
  C     -125.043     111.657       7.207
  O     -125.192     111.836       5.775
  C     -125.352     113.001       7.877
  O     -124.131     113.613       8.302
  C     -125.994     113.819       6.766
  O     -125.861     115.221       6.984
  C     -125.275     113.255       5.534
  N     -125.968     113.553       4.286
  C     -125.749     114.820       3.739
  O     -125.033     115.635       4.323
  N     -126.375     115.153       2.563
  C     -127.191     114.313       2.008
  N     -127.788     114.704       0.851
  C     -127.488     112.980       2.577
  C     -126.844     112.667       3.700
  O     -129.595     109.463       7.169
  O     -127.531     108.447       8.353
  H     -124.910     115.424       7.125
  H     -127.589     107.792       7.613
  H     -128.184     112.319       2.083
  H     -126.992     111.707       4.184
  H     -124.253     113.650       5.465
  H     -127.064     113.583       6.712
  H     -126.009     112.914       8.738
  H     -123.998     111.363       7.367
  H     -127.553     115.623       0.495
  H     -125.570     109.554       7.296
  H     -128.443     114.135       0.336
  H     -125.939     110.484       8.775
  P     -123.533     113.098       9.702
  C     -122.911     115.463      10.561
  O     -122.444     114.171      10.199
  O     -122.654     111.829       9.277
  O     -124.578     112.738      10.704
  H     -123.142     111.005       9.459
  H     -122.084     116.068      10.869
  H     -123.610     115.377      11.367
  H     -123.391     115.917       9.720

 6  7  8  9  10  11  12  13  14  15  16  26  30  31  32  33  35 0
 6-311+G(2d,p)
 ****
 37  38 0
 6-311+G(2d,p)
 ****
 1  2  3  4  5  17  18  19  20  21  22  23  24  25 0
 3-21G
 ****
 27  28  29  34  36  39  40  41  42  43  44  45  46 0
 3-21G
 ****


