%nproc=1
%NoSave
%Mem=1900MB
#P OB98/GEN NMR

erre ene a

0 1
  C      -92.601    -232.354      34.429
  O      -92.703    -231.018      34.926
  P      -93.864    -230.112      34.291
  C      -92.583    -227.869      34.536
  O      -93.725    -228.633      34.897
  C      -92.312    -226.778      35.575
  O      -93.368    -225.801      35.634
  C      -92.164    -227.317      36.991
  O      -90.866    -227.856      37.172
  C      -92.417    -226.069      37.826
  O      -91.219    -225.277      37.961
  C      -93.468    -225.315      36.997
  N      -96.884    -223.751      40.398
  C      -95.530    -223.490      40.319
  N      -95.018    -222.677      41.267
  N      -94.750    -223.981      39.392
  C      -95.398    -224.777      38.510
  C      -96.736    -225.087      38.469
  C      -97.590    -224.539      39.501
  O      -98.797    -224.723      39.601
  N      -97.036    -225.876      37.385
  C      -95.858    -226.142      36.853
  N      -94.839    -225.448      37.457
  O      -95.195    -230.686      34.972
  O      -93.931    -230.189      32.802
  H      -90.528    -225.816      38.384
  H      -95.728    -231.160      34.306
  H      -97.437    -223.354      41.139
  H      -95.693    -226.806      36.017
  H      -93.260    -224.238      36.969
  H      -92.736    -226.318      38.841
  H      -95.561    -222.261      42.008
  H      -92.938    -228.069      37.192
  H      -94.030    -222.466      41.222
  H      -91.389    -226.261      35.276
  H      -92.732    -227.414      33.556
  H      -91.724    -228.541      34.444
  P      -90.740    -229.274      37.908
  C      -88.707    -228.791      39.449
  O      -89.204    -229.471      38.312
  O      -90.964    -230.322      36.718
  O      -91.726    -229.492      39.009
  H      -91.562    -231.032      37.017
  H      -87.899    -229.382      39.886
  H      -89.485    -228.639      40.201
  H      -88.309    -227.820      39.140
  H      -91.797    -232.858      34.923
  H      -92.413    -232.329      33.376
  H      -93.517    -232.875      34.616

 3  4  5  6  7  8  9  10  11  12  23  26  30  31 0
 6-311+G(2d,p)
 ****
 33  35  36  37  38 0
 6-311+G(2d,p)
 ****
 1  2  13  14  15  16  17  18  19  20  21  22  24  25 0
 3-21G
 ****
 27  28  29  32  34  39  40  41  42  43  44  45  46  47  48  49 0
 3-21G
 ****


