%nproc=1
%NoSave
%Mem=1900MB
#P OB98/GEN NMR

erre ene a

0 1
  C      178.519     296.914    -471.262
  O      179.222     295.771    -471.701
  H      177.503     296.877    -471.662
  H      179.009     297.819    -471.637
  H      178.469     296.938    -470.169
  P      180.686     295.539    -471.078
  C      182.091     293.341    -470.759
  O      181.101     294.042    -471.492
  C      181.989     291.836    -471.028
  O      180.848     291.311    -470.294
  C      181.799     291.484    -472.504
  O      182.491     290.261    -472.774
  C      180.301     291.239    -472.616
  O      179.970     290.412    -473.727
  C      179.994     290.632    -471.235
  N      178.584     290.764    -470.870
  C      177.648     290.266    -471.784
  O      178.025     289.757    -472.842
  N      176.309     290.393    -471.502
  C      175.940     291.022    -470.431
  N      174.598     291.133    -470.219
  C      176.886     291.597    -469.459
  C      178.179     291.430    -469.733
  O      180.365     295.426    -469.516
  O      181.682     296.598    -471.430
  H      179.825     290.990    -474.514
  H      179.595     294.864    -469.320
  H      176.524     292.124    -468.582
  H      178.947     291.814    -469.068
  H      180.255     289.567    -471.216
  H      179.773     292.196    -472.738
  H      182.152     292.266    -473.176
  H      182.884     291.349    -470.618
  H      173.981     290.739    -470.919
  H      181.976     293.527    -469.688
  H      174.192     291.647    -469.452
  H      183.073     293.713    -471.071
  P      183.903     290.311    -473.528
  C      186.278     289.314    -473.259
  O      184.983     289.462    -472.694
  O      184.363     291.660    -473.964
  O      183.651     289.366    -474.807
  H      184.082     289.789    -475.577
  H      186.889     288.731    -472.602
  H      186.720     290.279    -473.395
  H      186.200     288.821    -474.205

 6  7  8  9  10  11  12  13  14  15  16  26  30  31  32  33  35 0
 6-311+G(2d,p)
 ****
 37  38 0
 6-311+G(2d,p)
 ****
 1  2  3  4  5  17  18  19  20  21  22  23  24  25 0
 3-21G
 ****
 27  28  29  34  36  39  40  41  42  43  44  45  46 0
 3-21G
 ****


