%nproc=1
%NoSave
%Mem=1900MB
#P OB98/GEN NMR

erre ene a

0 1
  C      158.398     -43.719     531.261
  O      159.677     -43.591     530.672
  H      158.514     -44.160     532.254
  H      157.769     -44.377     530.658
  H      157.917     -42.741     531.367
  P      159.811     -42.801     529.284
  C      160.915     -44.861     528.187
  O      161.024     -43.478     528.483
  C      161.562     -45.179     526.831
  O      160.801     -44.500     525.787
  C      163.026     -44.710     526.703
  O      163.676     -45.620     525.803
  C      162.835     -43.343     526.070
  O      164.037     -42.798     525.592
  C      161.747     -43.693     525.046
  N      161.077     -42.552     524.429
  C      161.747     -41.886     523.412
  O      162.858     -42.189     522.986
  N      161.086     -40.812     522.869
  C      159.851     -40.365     523.225
  O      159.293     -39.420     522.685
  C      159.195     -41.106     524.313
  C      159.826     -42.156     524.856
  O      159.872     -41.315     529.387
  O      158.527     -43.281     528.451
  H      157.841     -42.588     528.479
  H      164.416     -43.403     524.921
  H      161.553     -40.323     522.125
  H      158.216     -40.776     524.635
  H      159.363     -42.727     525.653
  H      162.162     -44.331     524.260
  H      162.459     -42.639     526.816
  H      163.555     -44.700     527.659
  H      161.472     -46.256     526.641
  H      159.851     -45.124     528.160
  H      161.401     -45.441     528.978
  P      164.878     -46.591     526.240
  C      166.721     -45.107     525.180
  O      166.087     -46.382     525.205
  O      164.471     -48.017     526.415
  O      165.440     -45.976     527.610
  H      165.852     -46.687     528.139
  H      167.502     -45.112     524.449
  H      167.135     -44.896     526.144
  H      166.002     -44.356     524.929

 6  7  8  9  10  11  12  13  14  15  16  27  31  32  33  34  35 0
 6-311+G(2d,p)
 ****
 36  37 0
 6-311+G(2d,p)
 ****
 1  2  3  4  5  17  18  19  20  21  22  23  24  25 0
 3-21G
 ****
 26  28  29  30  38  39  40  41  42  43  44  45 0
 3-21G
 ****


