%nproc=1
%NoSave
%Mem=1900MB
#P OB98/GEN NMR

erre ene a

0 1
  C      496.676     118.171     216.381
  O      496.681     119.587     216.225
  P      496.493     120.197     214.756
  C      499.066     120.211     214.138
  O      497.845     120.901     214.283
  C      499.995     121.007     213.209
  O      499.376     121.182     211.915
  C      500.324     122.402     213.738
  O      501.436     122.389     214.615
  C      500.574     123.172     212.457
  O      501.884     122.874     211.939
  C      499.480     122.585     211.533
  N      498.132     123.189     211.580
  C      497.787     124.185     210.669
  O      498.540     124.622     209.802
  N      496.512     124.678     210.772
  C      495.514     124.175     211.552
  O      494.372     124.619     211.558
  C      495.886     123.026     212.384
  C      497.154     122.603     212.371
  O      495.484     121.415     214.978
  O      495.978     119.222     213.745
  H      501.919     123.218     211.028
  H      494.641     121.249     214.515
  H      496.269     125.448     210.169
  H      495.112     122.566     212.985
  H      497.440     121.753     212.988
  H      499.803     122.617     210.486
  H      500.556     124.246     212.630
  H      499.448     122.837     214.227
  H      500.919     120.436     213.068
  H      498.902     119.210     213.733
  H      499.534     120.081     215.121
  P      501.202     122.308     216.197
  C      500.882     124.846     216.389
  O      501.667     123.732     216.774
  O      501.773     121.115     216.886
  O      499.607     122.380     216.343
  H      499.224     121.477     216.424
  H      501.202     125.717     216.967
  H      499.824     124.658     216.587
  H      501.031     125.056     215.325
  H      496.812     117.925     217.414
  H      497.472     117.746     215.806
  H      495.741     117.778     216.041

 3  4  5  6  7  8  9  10  11  12  13  23  28  29  30  31  32 0
 6-311+G(2d,p)
 ****
 33  34 0
 6-311+G(2d,p)
 ****
 1  2  14  15  16  17  18  19  20  21  22  24  25  26  27 0
 3-21G
 ****
 35  36  37  38  39  40  41  42  43  44  45 0
 3-21G
 ****


