%nproc=1
%NoSave
%Mem=1900MB
#P OB98/GEN NMR

erre ene a

0 1
  C      831.896     298.059     269.572
  O      831.420     298.072     268.242
  H      831.831     297.037     269.959
  H      831.291     298.711     270.205
  H      832.945     298.372     269.606
  P      831.378     299.473     267.458
  C      828.819     299.389     267.802
  O      829.883     299.619     266.888
  C      827.514     299.968     267.246
  O      826.409     299.640     268.112
  C      827.509     301.486     267.101
  O      828.170     301.881     265.910
  C      826.018     301.748     267.061
  O      825.495     301.424     265.758
  C      825.490     300.756     268.110
  N      822.760     303.572     271.344
  C      822.586     303.371     269.986
  N      821.568     304.035     269.397
  N      823.367     302.594     269.269
  C      824.379     302.049     269.972
  C      824.659     302.186     271.314
  C      823.754     302.989     272.110
  O      823.847     303.172     273.327
  N      825.824     301.554     271.654
  C      826.227     300.989     270.528
  N      825.392     301.268     269.472
  O      832.443     299.679     266.430
  O      831.434     300.575     268.620
  H      824.551     301.647     265.765
  H      832.358     300.840     268.802
  H      822.127     304.184     271.846
  H      827.113     300.377     270.427
  H      824.495     300.370     267.848
  H      825.769     302.805     267.252
  H      821.042     304.764     269.863
  H      827.942     301.976     267.986
  H      821.474     303.946     268.394
  H      827.318     299.479     266.274
  H      829.083     299.879     268.740
  H      828.696     298.316     267.982
  P      829.189     303.123     265.881
  C      827.531     305.036     266.439
  O      828.292     304.399     265.442
  O      830.417     302.920     265.079
  O      829.457     303.445     267.427
  H      830.182     302.885     267.814
  H      826.993     305.855     266.009
  H      828.182     305.400     267.206
  H      826.839     304.337     266.860

 6  7  8  9  10  11  12  13  14  15  26  29  33  34 0
 6-311+G(2d,p)
 ****
 36  38  39  40  41 0
 6-311+G(2d,p)
 ****
 1  2  3  4  5  16  17  18  19  20  21  22  23  24  25 0
 3-21G
 ****
 27  28  30  31  32  35  37  42  43  44  45  46  47 0
 3-21G
 ****
 48  49 0
 3-21G
 ****


