%nproc=1
%NoSave
%Mem=1900MB
#P OB98/GEN NMR

erre ene a

0 1
  C       54.497      51.413     -74.416
  O       54.532      51.900     -73.089
  H       54.202      50.361     -74.394
  H       55.484      51.491     -74.879
  H       53.763      51.969     -75.007
  P       54.979      53.418     -72.844
  C       57.412      53.427     -73.711
  O       56.560      53.379     -72.573
  C       58.831      53.020     -73.326
  O       59.674      52.967     -74.493
  C       59.514      53.973     -72.346
  O       59.100      53.706     -71.017
  C       60.972      53.620     -72.585
  O       61.284      52.378     -71.924
  C       61.002      53.423     -74.113
  N       62.692      55.176     -78.565
  C       62.613      53.879     -78.096
  N       63.079      52.915     -78.920
  N       62.133      53.556     -76.923
  C       61.770      54.627     -76.181
  C       61.818      55.959     -76.527
  C       62.289      56.297     -77.855
  O       62.352      57.433     -78.317
  N       61.454      56.765     -75.479
  C       61.136      55.920     -74.518
  N       61.319      54.608     -74.890
  O       54.204      54.173     -71.808
  O       54.874      54.098     -74.288
  H       62.080      52.015     -72.355
  H       53.998      54.507     -74.422
  H       63.079      55.364     -79.475
  H       60.765      56.200     -73.539
  H       61.714      52.647     -74.413
  H       61.660      54.373     -72.198
  H       63.593      53.111     -79.765
  H       59.352      55.020     -72.625
  H       63.082      51.965     -78.569
  H       58.789      52.003     -72.915
  H       57.398      54.454     -74.089
  H       57.040      52.760     -74.495
  P       58.392      54.832     -70.114
  C       60.606      56.168     -70.052
  O       59.583      55.535     -69.303
  O       57.268      54.341     -69.270
  O       57.982      55.971     -71.155
  H       57.108      55.801     -71.589
  H       61.328      56.590     -69.384
  H       60.180      56.944     -70.654
  H       61.083      55.448     -70.684

 6  7  8  9  10  11  12  13  14  15  26  29  33  34 0
 6-311+G(2d,p)
 ****
 36  38  39  40  41 0
 6-311+G(2d,p)
 ****
 1  2  3  4  5  16  17  18  19  20  21  22  23  24  25 0
 3-21G
 ****
 27  28  30  31  32  35  37  42  43  44  45  46  47 0
 3-21G
 ****
 48  49 0
 3-21G
 ****


