%nproc=1
%NoSave
%Mem=1900MB
#P OB98/GEN NMR

erre ene a

0 1
  C      -53.779     868.786     258.822
  O      -53.048     867.665     259.268
  H      -54.438     868.478     258.006
  H      -53.091     869.552     258.448
  H      -54.387     869.206     259.630
  P      -52.170     867.858     260.600
  C      -51.524     865.342     260.657
  O      -51.068     866.688     260.598
  C      -50.408     864.386     260.240
  O      -50.147     864.501     258.819
  C      -49.072     864.633     260.941
  O      -49.031     864.037     262.231
  C      -48.114     863.950     259.978
  O      -48.180     862.523     260.168
  C      -48.712     864.332     258.618
  N      -45.394     866.268     255.306
  C      -45.671     864.954     255.614
  N      -44.954     864.011     254.960
  N      -46.566     864.578     256.497
  C      -47.199     865.631     257.089
  C      -47.010     866.978     256.859
  C      -46.028     867.367     255.871
  O      -45.760     868.523     255.541
  N      -47.849     867.736     257.632
  C      -48.518     866.857     258.347
  N      -48.160     865.554     258.056
  O      -53.171     867.412     261.774
  O      -51.647     869.236     260.828
  H      -47.947     862.348     261.102
  H      -53.008     867.974     262.554
  H      -44.685     866.494     254.621
  H      -49.279     867.096     259.084
  H      -48.577     863.546     257.871
  H      -47.079     864.249     260.139
  H      -44.213     864.225     254.307
  H      -48.837     865.713     260.983
  H      -45.161     863.036     255.151
  H      -50.751     863.359     260.425
  H      -52.375     865.217     259.981
  H      -51.854     865.126     261.679
  P      -47.955     864.606     263.287
  C      -49.067     863.280     265.235
  O      -47.888     863.511     264.456
  O      -48.727     865.827     263.966
  O      -46.650     865.019     262.690
  H      -48.082     866.467     264.346
  H      -48.868     862.528     265.969
  H      -49.859     862.952     264.595
  H      -49.356     864.187     265.723

 6  7  8  9  10  11  12  13  14  15  26  29  33  34 0
 6-311+G(2d,p)
 ****
 36  38  39  40  41 0
 6-311+G(2d,p)
 ****
 1  2  3  4  5  16  17  18  19  20  21  22  23  24  25 0
 3-21G
 ****
 27  28  30  31  32  35  37  42  43  44  45  46  47 0
 3-21G
 ****
 48  49 0
 3-21G
 ****


