%nproc=1
%NoSave
%Mem=1900MB
#P OB98/GEN NMR

erre ene a

0 1
  C     -848.012     477.742     142.531
  O     -847.234     477.802     141.331
  P     -846.352     479.122     141.114
  C     -843.983     478.023     141.092
  O     -845.010     478.692     140.345
  C     -843.226     477.047     140.188
  O     -844.024     475.892     139.858
  C     -842.829     477.654     138.854
  O     -841.739     478.550     138.994
  C     -842.525     476.403     138.042
  O     -841.209     475.891     138.378
  C     -843.601     475.422     138.566
  N     -845.539     473.041     134.469
  C     -844.343     472.920     135.104
  N     -843.906     473.586     136.182
  C     -844.837     474.466     136.621
  C     -846.085     474.687     136.084
  C     -846.441     473.945     134.942
  N     -847.653     474.063     134.292
  N     -846.757     475.653     136.798
  C     -845.924     476.027     137.745
  N     -844.747     475.329     137.679
  O     -845.854     479.486     142.588
  O     -847.113     480.251     140.478
  H     -841.216     475.744     139.345
  H     -846.317     480.287     142.906
  H     -843.670     472.195     134.689
  H     -846.114     476.789     138.485
  H     -843.197     474.401     138.693
  H     -842.541     476.557     136.956
  H     -843.683     478.193     138.397
  H     -842.337     476.722     140.735
  H     -844.434     477.484     141.939
  H     -847.776     473.543     133.439
  H     -848.280     474.790     134.585
  H     -843.304     478.765     141.526
  P     -841.186     479.291     137.686
  C     -841.474     481.567     138.854
  O     -840.555     480.666     138.257
  O     -842.560     479.785     137.007
  O     -840.300     478.480     136.818
  H     -843.167     480.197     137.668
  H     -840.909     482.442     139.221
  H     -841.996     481.104     139.672
  H     -842.204     481.925     138.097
  H     -848.553     476.819     142.560
  H     -848.702     478.560     142.550
  H     -847.363     477.802     143.380

 3  4  5  6  7  8  9  10  11  12  22  25  29  30  31  32 0
 6-311+G(2d,p)
 ****
 33  36  37 0
 6-311+G(2d,p)
 ****
 1  2  13  14  15  16  17  18  19  20  21  23  24  26 0
 3-21G
 ****
 27  28  34  35  38  39  40  41  42  43  44  45  46  47  48 0
 3-21G
 ****


