%nproc=1
%NoSave
%Mem=1900MB
#P OB98/GEN NMR

erre ene a

0 1
  C      515.572      15.874      49.747
  O      516.025      14.530      49.700
  P      516.206      13.670      51.042
  C      518.238      12.357      50.166
  O      516.888      12.279      50.611
  C      518.688      10.999      49.607
  O      518.758      10.037      50.708
  C      517.725      10.431      48.549
  O      518.342      10.057      47.311
  C      517.021       9.305      49.293
  O      516.431       8.331      48.446
  C      518.135       8.827      50.233
  N      517.620       7.996      51.329
  C      518.549       7.468      52.218
  O      519.760       7.664      52.155
  N      518.042       6.646      53.185
  C      516.759       6.201      53.285
  O      516.403       5.390      54.110
  C      515.823       6.765      52.280
  C      516.282       7.649      51.380
  O      514.980      13.515      51.880
  O      517.412      14.416      51.795
  H      516.002       7.665      49.020
  H      518.247      14.451      51.287
  H      518.705       6.252      53.835
  H      514.801       6.430      52.317
  H      515.619       8.069      50.639
  H      518.892       8.256      49.699
  H      516.211       9.751      49.885
  H      516.977      11.187      48.249
  H      519.696      11.120      49.195
  H      518.878      12.621      51.015
  H      518.337      13.144      49.414
  P      518.245      10.879      45.946
  C      517.365       8.699      44.855
  O      518.182       9.839      44.737
  O      519.268      11.969      45.790
  O      516.767      11.506      45.975
  H      516.759      12.344      45.489
  H      517.788       7.891      44.238
  H      516.367       8.928      44.475
  H      517.293       8.362      45.888
  H      515.519      16.268      48.753
  H      516.254      16.460      50.327
  H      514.601      15.908      50.196

 3  4  5  6  7  8  9  10  11  12  13  23  28  29  30  31  32 0
 6-311+G(2d,p)
 ****
 33  34 0
 6-311+G(2d,p)
 ****
 1  2  14  15  16  17  18  19  20  21  22  24  25  26  27 0
 3-21G
 ****
 35  36  37  38  39  40  41  42  43  44  45 0
 3-21G
 ****


