%nproc=1
%NoSave
%Mem=1900MB
#P OB98/GEN NMR

erre ene a

0 1
  C      499.053    -391.966     287.428
  O      498.759    -390.588     287.628
  P      498.497    -389.690     286.321
  C      496.350    -390.973     285.611
  O      497.697    -390.642     285.300
  C      495.431    -390.645     284.435
  O      495.372    -389.220     284.235
  C      495.876    -391.231     283.102
  O      495.486    -392.586     282.956
  C      495.101    -390.353     282.134
  O      493.734    -390.797     282.051
  C      495.177    -388.985     282.816
  N      496.296    -384.890     279.960
  C      495.124    -385.518     280.210
  N      494.912    -386.610     280.975
  C      496.065    -387.078     281.472
  C      497.344    -386.563     281.276
  C      497.436    -385.404     280.482
  N      498.621    -384.748     280.245
  N      498.277    -387.312     281.945
  C      497.587    -388.257     282.551
  N      496.250    -388.151     282.308
  O      499.945    -389.581     285.660
  O      497.890    -388.354     286.586
  H      493.711    -391.533     281.425
  H      499.994    -388.785     285.090
  H      494.251    -385.080     279.750
  H      498.016    -389.031     283.182
  H      494.242    -388.420     282.711
  H      495.508    -390.384     281.115
  H      496.947    -391.095     282.954
  H      494.416    -390.994     284.687
  H      496.027    -390.400     286.483
  H      498.573    -383.837     279.830
  H      499.425    -385.016     280.796
  H      496.289    -392.040     285.853
  P      496.147    -393.406     281.737
  C      498.582    -393.378     282.662
  O      497.673    -392.903     281.676
  O      495.474    -392.739     280.447
  O      495.931    -394.879     281.802
  H      495.471    -393.372     279.709
  H      499.597    -393.201     282.298
  H      498.447    -394.439     282.841
  H      498.436    -392.815     283.586
  H      499.204    -392.440     288.376
  H      499.940    -392.059     286.837
  H      498.236    -392.435     286.921

 3  4  5  6  7  8  9  10  11  12  22  25  29  30  31  32 0
 6-311+G(2d,p)
 ****
 33  36  37 0
 6-311+G(2d,p)
 ****
 1  2  13  14  15  16  17  18  19  20  21  23  24  26 0
 3-21G
 ****
 27  28  34  35  38  39  40  41  42  43  44  45  46  47  48 0
 3-21G
 ****


