%nproc=1
%NoSave
%Mem=1900MB
#P OB98/GEN NMR

erre ene a

0 1
  C     -144.706    -932.258     535.194
  O     -143.453    -932.609     534.652
  P     -143.015    -932.319     533.147
  C     -143.065    -933.646     530.892
  O     -143.569    -933.508     532.213
  C     -142.873    -935.122     530.534
  O     -141.836    -935.683     531.394
  C     -144.142    -935.950     530.803
  O     -144.443    -936.912     529.797
  C     -143.931    -936.470     532.222
  O     -144.726    -937.609     532.543
  C     -142.408    -936.691     532.241
  N     -142.306    -938.557     536.975
  C     -142.921    -939.075     535.855
  N     -143.774    -940.103     536.052
  N     -142.761    -938.583     534.645
  C     -141.981    -937.470     534.612
  C     -141.320    -936.869     535.655
  C     -141.478    -937.442     536.974
  O     -141.043    -936.953     538.020
  N     -140.667    -935.733     535.257
  C     -140.969    -935.614     533.981
  N     -141.803    -936.631     533.549
  O     -141.614    -931.856     532.927
  O     -144.004    -931.090     532.758
  H     -144.638    -937.769     533.496
  H     -143.509    -930.512     532.137
  H     -142.536    -938.925     537.885
  H     -140.652    -934.805     533.327
  H     -142.146    -937.672     531.829
  H     -144.208    -935.673     532.908
  H     -144.035    -940.403     536.985
  H     -145.031    -935.300     530.804
  H     -144.421    -940.334     535.300
  H     -142.526    -935.215     529.489
  H     -142.101    -933.126     530.867
  H     -143.734    -933.163     530.173
  P     -145.862    -937.295     529.151
  C     -148.095    -938.103     530.111
  O     -146.968    -937.269     530.310
  O     -145.759    -938.845     528.794
  O     -146.225    -936.496     527.929
  H     -146.207    -939.008     527.939
  H     -148.898    -937.800     530.803
  H     -147.831    -939.148     530.322
  H     -148.477    -938.004     529.091
  H     -144.749    -932.562     536.219
  H     -145.482    -932.748     534.644
  H     -144.838    -931.198     535.130

 3  4  5  6  7  8  9  10  11  12  23  26  30  31 0
 6-311+G(2d,p)
 ****
 33  35  36  37  38 0
 6-311+G(2d,p)
 ****
 1  2  13  14  15  16  17  18  19  20  21  22  24  25 0
 3-21G
 ****
 27  28  29  32  34  39  40  41  42  43  44  45  46  47  48  49 0
 3-21G
 ****


