%nproc=1
%NoSave
%Mem=1900MB
#P OB98/GEN NMR

erre ene a

0 1
  C     -302.465    -899.240     512.804
  O     -301.418    -898.740     511.975
  H     -303.013    -900.000     512.211
  H     -303.148    -898.440     513.069
  H     -302.060    -899.720     513.692
  P     -300.385    -897.680     512.599
  C     -301.213    -895.930     510.893
  O     -300.962    -896.210     512.263
  C     -301.713    -894.510     510.711
  O     -300.601    -893.600     510.931
  C     -302.298    -894.220     509.321
  O     -303.404    -893.340     509.463
  C     -301.180    -893.500     508.591
  O     -301.634    -892.630     507.568
  C     -300.502    -892.740     509.764
  N     -297.401    -889.340     507.687
  C     -298.781    -889.300     507.895
  N     -299.423    -888.200     507.439
  N     -299.430    -890.260     508.471
  C     -298.677    -891.290     508.877
  C     -297.301    -891.470     508.737
  C     -296.565    -890.390     508.085
  O     -295.362    -890.340     507.849
  N     -296.889    -892.650     509.251
  C     -297.992    -893.230     509.682
  N     -299.101    -892.450     509.476
  O     -298.955    -897.890     512.238
  O     -300.629    -897.810     514.184
  H     -302.441    -892.200     507.904
  H     -299.926    -898.360     514.594
  H     -296.934    -888.590     507.235
  H     -298.047    -894.200     510.151
  H     -300.979    -891.790     509.977
  H     -300.469    -894.230     508.158
  H     -298.949    -887.420     507.012
  H     -302.592    -895.150     508.786
  H     -300.438    -888.140     507.608
  H     -302.454    -894.310     511.500
  H     -301.971    -896.640     510.535
  H     -300.276    -896.100     510.313
  P     -304.888    -893.990     509.594
  C     -305.445    -893.920     507.090
  O     -305.232    -894.750     508.236
  O     -305.936    -893.050     510.132
  O     -304.636    -895.200     510.647
  H     -305.443    -895.350     511.159
  H     -305.667    -894.533     506.242
  H     -304.562    -893.348     506.895
  H     -306.265    -893.258     507.276

 6  7  8  9  10  11  12  13  14  15  26  29  33  34 0
 6-311+G(2d,p)
 ****
 36  38  39  40  41 0
 6-311+G(2d,p)
 ****
 1  2  3  4  5  16  17  18  19  20  21  22  23  24  25 0
 3-21G
 ****
 27  28  30  31  32  35  37  42  43  44  45  46  47 0
 3-21G
 ****
 48  49 0
 3-21G
 ****


