%nproc=1
%NoSave
%Mem=1900MB
#P OB98/GEN NMR

erre ene a

0 1
  C      -40.558    -299.050     425.863
  O      -40.624    -298.698     427.234
  H      -41.315    -299.813     425.659
  H      -39.575    -299.461     425.613
  H      -40.761    -298.177     425.238
  P      -39.508    -297.705     427.816
  C      -41.171    -295.825     428.452
  O      -40.097    -296.230     427.607
  C      -42.377    -295.428     427.609
  O      -42.839    -296.553     426.834
  C      -43.572    -294.982     428.443
  O      -43.379    -293.673     428.945
  C      -44.698    -295.140     427.438
  O      -44.750    -294.032     426.534
  C      -44.275    -296.433     426.704
  N      -44.948    -297.626     427.217
  C      -44.863    -298.768     426.415
  O      -44.247    -298.741     425.351
  N      -45.508    -299.909     426.835
  C      -46.157    -299.909     427.956
  N      -46.769    -301.072     428.312
  C      -46.258    -298.730     428.836
  C      -45.642    -297.631     428.404
  O      -38.110    -297.889     427.308
  O      -39.605    -297.917     429.400
  H      -43.835    -293.905     426.213
  H      -39.006    -298.630     429.686
  H      -46.806    -298.783     429.767
  H      -45.667    -296.720     428.993
  H      -44.493    -296.352     425.627
  H      -45.666    -295.211     427.932
  H      -43.744    -295.690     429.263
  H      -42.071    -294.640     426.907
  H      -46.682    -301.853     427.673
  H      -40.820    -294.968     429.036
  H      -47.226    -301.218     429.200
  H      -41.438    -296.631     429.145
  P      -43.400    -293.393     430.525
  C      -41.487    -291.665     430.457
  O      -41.902    -292.956     430.903
  O      -43.977    -294.490     431.359
  O      -44.212    -292.016     430.629
  H      -45.184    -292.157     430.480
  H      -40.478    -291.488     430.767
  H      -42.126    -290.919     430.880
  H      -41.545    -291.621     429.390

 6  7  8  9  10  11  12  13  14  15  16  26  30  31  32  33  35 0
 6-311+G(2d,p)
 ****
 37  38 0
 6-311+G(2d,p)
 ****
 1  2  3  4  5  17  18  19  20  21  22  23  24  25 0
 3-21G
 ****
 27  28  29  34  36  39  40  41  42  43  44  45  46 0
 3-21G
 ****


