%nproc=1
%NoSave
%Mem=1900MB
#P OB98/GEN NMR

erre ene a

0 1
  C       70.135     172.377     -58.719
  O       68.818     172.449     -58.204
  P       67.629     171.574     -58.842
  C       65.331     170.770     -58.002
  O       66.467     171.589     -57.734
  C       64.090     171.347     -57.317
  O       64.196     171.096     -55.895
  C       63.901     172.859     -57.455
  O       63.260     173.275     -58.652
  C       62.977     173.132     -56.265
  O       61.629     172.764     -56.613
  C       63.532     172.187     -55.196
  N       64.085     175.723     -51.537
  C       62.993     175.271     -52.201
  N       62.935     174.347     -53.180
  C       64.153     173.829     -53.419
  C       65.358     174.180     -52.817
  C       65.288     175.177     -51.829
  N       66.403     175.620     -51.130
  N       66.399     173.441     -53.345
  C       65.839     172.653     -54.234
  N       64.482     172.839     -54.314
  O       68.045     170.226     -59.324
  O       67.033     172.499     -60.000
  H       61.385     173.285     -57.405
  H       66.492     171.956     -60.611
  H       62.050     175.726     -51.922
  H       66.360     171.937     -54.845
  H       62.742     171.745     -54.579
  H       62.955     174.191     -55.975
  H       64.850     173.397     -57.301
  H       63.207     170.809     -57.695
  H       65.527     169.767     -57.599
  H       66.243     176.241     -50.357
  H       67.265     175.101     -51.234
  H       65.190     170.685     -59.084
  P       63.583     174.765     -59.180
  C       62.897     176.034     -61.370
  O       63.081     174.803     -60.698
  O       64.987     175.211     -58.953
  O       62.488     175.654     -58.417
  H       61.561     175.492     -58.683
  H       62.719     175.836     -62.429
  H       63.782     176.666     -61.280
  H       62.025     176.552     -60.958
  H       70.772     173.030     -58.161
  H       70.133     172.674     -59.747
  H       70.495     171.373     -58.638

 3  4  5  6  7  8  9  10  11  12  22  25  29  30  31  32 0
 6-311+G(2d,p)
 ****
 33  36  37 0
 6-311+G(2d,p)
 ****
 1  2  13  14  15  16  17  18  19  20  21  23  24  26 0
 3-21G
 ****
 27  28  34  35  38  39  40  41  42  43  44  45  46  47  48 0
 3-21G
 ****


