%nproc=1
%NoSave
%Mem=1900MB
#P OB98/GEN NMR

erre ene a

0 1
  C     -322.357      35.610     614.656
  O     -322.848      36.354     615.792
  P     -323.221      35.657     617.180
  C     -322.493      36.100     619.628
  O     -322.916      36.680     618.386
  C     -321.590      37.047     620.419
  O     -320.313      37.233     619.743
  C     -322.149      38.461     620.587
  O     -323.162      38.482     621.594
  C     -320.877      39.233     620.946
  O     -320.567      39.091     622.358
  C     -319.825      38.523     620.078
  N     -319.482      39.306     618.882
  C     -318.478      40.263     619.013
  O     -317.960      40.463     620.133
  N     -318.101      40.989     617.913
  C     -318.733      40.822     616.789
  N     -318.318      41.554     615.713
  C     -319.871      39.884     616.626
  C     -320.178      39.173     617.692
  O     -322.615      34.301     617.377
  O     -324.829      35.567     617.179
  H     -321.315      39.492     622.852
  H     -325.099      34.789     617.697
  H     -320.380      39.801     615.676
  H     -320.995      38.454     617.664
  H     -318.898      38.364     620.653
  H     -320.967      40.309     620.751
  H     -322.545      38.835     619.632
  H     -321.383      36.593     621.400
  H     -317.529      42.191     615.865
  H     -321.930      35.172     619.391
  H     -318.741      41.510     614.795
  H     -323.380      35.840     620.209
  P     -324.679      38.799     621.163
  C     -326.905      39.156     622.410
  O     -325.499      39.127     622.505
  O     -325.319      37.799     620.265
  O     -324.589      40.235     620.461
  H     -325.275      40.293     619.762
  H     -327.351      38.979     623.384
  H     -327.274      38.388     621.696
  H     -327.231      40.144     622.027
  H     -322.175      36.280     613.842
  H     -323.086      34.883     614.364
  H     -321.446      35.115     614.921

 3  4  5  6  7  8  9  10  11  12  13  23  27  28  29  30  32 0
 6-311+G(2d,p)
 ****
 34  35 0
 6-311+G(2d,p)
 ****
 1  2  14  15  16  17  18  19  20  21  22  24  25  26 0
 3-21G
 ****
 31  33  36  37  38  39  40  41  42  43  44  45  46 0
 3-21G
 ****


