%nproc=1
%NoSave
%Mem=1900MB
#P OB98/GEN NMR

erre ene a

0 1
  C     -149.892      49.978    -149.075
  O     -151.225      49.474    -149.015
  P     -152.420      49.954    -149.956
  C     -154.235      51.845    -149.862
  O     -153.231      51.100    -149.189
  C     -155.316      52.397    -148.915
  O     -155.987      51.293    -148.253
  C     -154.681      53.243    -147.812
  O     -154.362      54.601    -148.050
  C     -155.568      53.018    -146.595
  O     -156.576      54.023    -146.460
  C     -156.208      51.655    -146.873
  N     -155.302      50.137    -142.074
  C     -155.757      51.356    -142.531
  N     -155.951      52.315    -141.600
  N     -155.985      51.619    -143.790
  C     -155.667      50.602    -144.624
  C     -155.189      49.354    -144.292
  C     -154.995      49.054    -142.889
  O     -154.604      47.985    -142.429
  N     -154.960      48.591    -145.408
  C     -155.273      49.382    -146.413
  N     -155.716      50.614    -145.987
  O     -153.222      48.866    -150.587
  O     -151.664      50.750    -151.140
  H     -157.048      54.089    -147.310
  H     -152.195      50.613    -151.951
  H     -155.165      49.981    -141.091
  H     -155.206      49.114    -147.460
  H     -157.294      51.692    -146.733
  H     -154.975      53.048    -145.674
  H     -155.682      52.216    -140.635
  H     -153.721      52.773    -147.561
  H     -156.073      53.269    -141.950
  H     -156.090      52.926    -149.476
  H     -154.681      51.177    -150.604
  H     -153.779      52.665    -150.419
  P     -152.994      55.160    -148.665
  C     -150.627      55.571    -147.773
  O     -152.004      55.486    -147.451
  O     -153.379      56.617    -149.202
  O     -152.405      54.328    -149.756
  H     -152.698      56.942    -149.819
  H     -150.041      55.485    -146.854
  H     -150.420      56.539    -148.238
  H     -150.336      54.769    -148.457
  H     -149.292      49.488    -148.337
  H     -149.900      51.031    -148.887
  H     -149.484      49.793    -150.047

 3  4  5  6  7  8  9  10  11  12  23  26  30  31 0
 6-311+G(2d,p)
 ****
 33  35  36  37  38 0
 6-311+G(2d,p)
 ****
 1  2  13  14  15  16  17  18  19  20  21  22  24  25 0
 3-21G
 ****
 27  28  29  32  34  39  40  41  42  43  44  45  46  47  48  49 0
 3-21G
 ****


