%nproc=1
%NoSave
%Mem=1900MB
#P OB98/GEN NMR

erre ene a

0 1
  C      208.486      75.425    -284.404
  O      208.958      74.208    -284.943
  H      207.412      75.360    -284.208
  H      209.004      75.618    -283.460
  H      208.690      76.250    -285.093
  P      208.328      73.742    -286.343
  C      207.661      71.486    -285.239
  O      207.237      72.623    -285.979
  C      206.654      71.190    -284.134
  O      206.594      72.294    -283.204
  C      205.225      70.986    -284.625
  O      205.011      69.677    -285.122
  C      204.452      71.221    -283.339
  O      204.546      70.057    -282.497
  C      205.227      72.392    -282.719
  N      202.317      76.288    -281.132
  C      202.644      75.114    -280.553
  N      203.422      74.127    -281.043
  C      203.879      74.445    -282.265
  C      203.622      75.600    -282.985
  C      202.802      76.558    -282.364
  N      202.454      77.751    -282.959
  N      204.239      75.553    -284.220
  C      204.882      74.402    -284.228
  N      204.687      73.693    -283.073
  O      209.505      72.894    -287.021
  O      207.830      74.837    -287.226
  H      204.165      69.315    -283.003
  H      209.364      72.838    -287.985
  H      202.225      74.945    -279.565
  H      205.498      74.043    -285.041
  H      205.262      72.341    -281.625
  H      203.391      71.411    -283.506
  H      204.938      71.748    -285.361
  H      207.006      70.308    -283.582
  H      208.639      71.693    -284.792
  H      201.719      78.278    -282.512
  H      202.688      77.892    -283.931
  H      207.750      70.630    -285.915
  P      204.446      69.540    -286.619
  C      202.523      68.142    -285.560
  O      202.893      69.177    -286.468
  O      205.102      68.175    -287.131
  O      204.761      70.694    -287.512
  H      205.188      68.174    -288.103
  H      201.460      68.020    -285.573
  H      202.840      68.404    -284.572
  H      202.991      67.226    -285.854

 6  7  8  9  10  11  12  13  14  15  25  28  32  33  34  35 0
 6-311+G(2d,p)
 ****
 36  39  40 0
 6-311+G(2d,p)
 ****
 1  2  3  4  5  16  17  18  19  20  21  22  23  24 0
 3-21G
 ****
 26  27  29  30  31  37  38  41  42  43  44  45  46  47 0
 3-21G
 ****
 48 0
 3-21G
 ****


