%nproc=1
%NoSave
%Mem=1900MB
#P OB98/GEN NMR

erre ene a

0 1
  C       52.853    -855.487    -465.887
  O       54.227    -855.870    -466.042
  P       55.410    -855.173    -465.217
  C       55.004    -855.941    -462.781
  O       55.798    -856.087    -463.955
  C       55.429    -856.926    -461.683
  O       55.261    -858.287    -462.122
  C       56.894    -856.808    -461.251
  O       57.097    -855.679    -460.429
  C       57.101    -858.155    -460.561
  O       56.607    -858.124    -459.202
  C       56.234    -859.097    -461.429
  N       57.030    -859.882    -462.361
  C       57.399    -861.169    -461.930
  O       57.098    -861.565    -460.807
  N       58.113    -861.975    -462.788
  C       58.494    -861.496    -463.939
  N       59.206    -862.333    -464.744
  C       58.216    -860.115    -464.392
  C       57.480    -859.379    -463.553
  O       55.157    -853.738    -464.867
  O       56.706    -855.294    -466.160
  H       56.725    -859.017    -458.844
  H       57.286    -854.527    -466.004
  H       58.579    -859.756    -465.340
  H       57.225    -858.362    -463.814
  H       55.655    -859.777    -460.794
  H       58.155    -858.447    -460.524
  H       57.531    -856.751    -462.136
  H       54.758    -856.768    -460.819
  H       59.375    -863.274    -464.417
  H       53.953    -856.131    -463.047
  H       59.552    -862.066    -465.661
  H       55.091    -854.905    -462.424
  P       58.117    -854.534    -460.878
  C       58.317    -853.051    -462.974
  O       57.438    -853.717    -462.072
  O       59.521    -854.982    -461.130
  O       58.072    -853.477    -459.660
  H       58.948    -853.053    -459.583
  H       57.804    -852.903    -463.921
  H       59.211    -853.667    -463.158
  H       58.607    -852.094    -462.556
  H       52.242    -856.082    -466.533
  H       52.740    -854.454    -466.141
  H       52.553    -855.639    -464.871

 3  4  5  6  7  8  9  10  11  12  13  23  27  28  29  30  32 0
 6-311+G(2d,p)
 ****
 34  35 0
 6-311+G(2d,p)
 ****
 1  2  14  15  16  17  18  19  20  21  22  24  25  26 0
 3-21G
 ****
 31  33  36  37  38  39  40  41  42  43  44  45  46 0
 3-21G
 ****


