%nproc=1
%NoSave
%Mem=1900MB
#P OB98/GEN NMR

erre ene a

0 1
  C        0.544      36.522       1.271
  O        0.791      35.176       1.643
  P        1.855      34.287       0.838
  C       -0.066      33.123      -0.413
  O        1.145      33.860      -0.538
  C       -0.485      32.545      -1.763
  O       -0.623      33.629      -2.712
  C        0.523      31.558      -2.339
  O       -0.185      30.523      -3.027
  C        1.297      32.367      -3.365
  O        1.844      31.521      -4.390
  C        0.228      33.354      -3.841
  N        2.525      35.753      -7.754
  C        2.056      34.494      -7.624
  N        1.481      33.915      -6.548
  C        1.358      34.801      -5.547
  C        1.784      36.120      -5.533
  C        2.398      36.597      -6.704
  N        2.864      37.887      -6.838
  N        1.514      36.709      -4.313
  C        0.918      35.768      -3.615
  N        0.791      34.601      -4.319
  O        2.444      33.158       1.608
  O        2.969      35.328       0.361
  H        1.093      31.051      -4.806
  H        3.856      34.925       0.416
  H        2.161      33.862      -8.502
  H        0.572      35.875      -2.598
  H       -0.392      32.924      -4.637
  H        2.130      32.882      -2.873
  H        1.175      31.121      -1.576
  H       -1.470      32.077      -1.653
  H       -0.846      33.801      -0.055
  H        3.176      38.174      -7.752
  H        2.615      38.560      -6.126
  H        0.067      32.326       0.325
  P        0.275      29.015      -2.693
  C        2.003      28.892      -4.635
  O        1.775      28.917      -3.245
  O       -0.705      28.007      -3.196
  O        0.415      29.078      -1.099
  H        0.587      29.994      -0.789
  H        3.077      28.783      -4.812
  H        1.670      29.828      -5.091
  H        1.482      28.047      -5.095
  H       -0.192      36.943       1.923
  H        0.187      36.554       0.263
  H        1.451      37.085       1.346

 3  4  5  6  7  8  9  10  11  12  22  25  29  30  31  32 0
 6-311+G(2d,p)
 ****
 33  36  37 0
 6-311+G(2d,p)
 ****
 1  2  13  14  15  16  17  18  19  20  21  23  24  26 0
 3-21G
 ****
 27  28  34  35  38  39  40  41  42  43  44  45  46  47  48 0
 3-21G
 ****


