%nproc=1
%NoSave
%Mem=1900MB
#P OB98/GEN NMR

erre ene a

0 1
  C      500.719     277.759     -30.588
  O      500.603     276.504     -31.227
  H      500.655     277.609     -29.507
  H      499.913     278.435     -30.896
  H      501.691     278.209     -30.818
  P      500.391     276.484     -32.821
  C      497.888     275.912     -32.570
  O      498.840     276.853     -33.052
  C      496.473     276.485     -32.606
  O      495.497     275.475     -32.264
  C      496.230     277.613     -31.604
  O      496.956     278.793     -31.854
  C      494.714     277.660     -31.547
  O      494.148     278.421     -32.616
  C      494.349     276.157     -31.717
  N      493.921     275.557     -30.462
  C      492.747     276.081     -29.903
  O      492.118     277.003     -30.405
  N      492.338     275.513     -28.731
  C      493.000     274.531     -28.036
  O      492.597     274.083     -26.976
  C      494.245     274.043     -28.651
  C      494.635     274.571     -29.816
  O      500.827     275.229     -33.524
  O      501.157     277.801     -33.319
  H      494.479     279.328     -32.526
  H      501.310     277.770     -34.303
  H      491.489     275.871     -28.319
  H      494.799     273.282     -28.137
  H      495.555     274.224     -30.297
  H      493.537     276.053     -32.443
  H      494.353     278.093     -30.609
  H      496.566     277.262     -30.613
  H      496.268     276.820     -33.630
  H      498.155     275.660     -31.541
  H      497.940     275.002     -33.170
  P      497.429     279.814     -30.715
  C      495.549     281.614     -31.031
  O      496.137     280.624     -30.188
  O      498.680     280.576     -30.981
  O      497.719     278.811     -29.486
  H      498.455     279.188     -28.980
  H      494.709     282.052     -30.534
  H      495.226     281.159     -31.944
  H      496.271     282.373     -31.247

 6  7  8  9  10  11  12  13  14  15  16  26  31  32  33  34  35 0
 6-311+G(2d,p)
 ****
 36  37 0
 6-311+G(2d,p)
 ****
 1  2  3  4  5  17  18  19  20  21  22  23  24  25 0
 3-21G
 ****
 27  28  29  30  38  39  40  41  42  43  44  45 0
 3-21G
 ****


