%nproc=1
%NoSave
%Mem=1900MB
#P OB98/GEN NMR

erre ene a

0 1
  C      -42.991     113.825     229.888
  O      -42.673     112.670     229.136
  H      -42.326     114.649     229.615
  H      -44.024     114.117     229.667
  H      -42.903     113.615     230.960
  P      -41.182     112.098     229.291
  C      -42.137     110.011     230.522
  O      -41.241     111.112     230.559
  C      -41.550     108.856     231.323
  O      -42.477     107.744     231.343
  C      -40.254     108.302     230.745
  O      -39.120     109.066     231.122
  C      -40.226     106.922     231.381
  O      -39.815     107.028     232.759
  C      -41.706     106.514     231.300
  N      -41.743     101.929     229.024
  C      -41.400     102.310     230.270
  N      -41.441     103.551     230.806
  C      -41.899     104.441     229.913
  C      -42.290     104.195     228.605
  C      -42.196     102.865     228.158
  N      -42.511     102.477     226.877
  N      -42.684     105.368     227.990
  C      -42.544     106.297     228.913
  N      -42.043     105.790     230.082
  O      -40.348     113.347     229.844
  O      -40.584     111.492     228.063
  H      -38.862     107.221     232.758
  H      -39.390     113.179     229.763
  H      -41.047     101.519     230.926
  H      -42.782     107.345     228.781
  H      -42.022     105.892     232.146
  H      -39.528     106.243     230.889
  H      -40.314     108.192     229.655
  H      -41.412     109.192     232.359
  H      -42.280     109.704     229.479
  H      -42.271     101.534     226.609
  H      -42.708     103.186     226.187
  H      -43.102     110.315     230.940
  P      -37.765     108.842     230.285
  C      -38.022     111.089     229.007
  O      -37.935     109.672     228.922
  O      -37.887     107.322     229.807
  O      -36.511     109.099     231.053
  H      -37.006     106.903     229.746
  H      -38.132     111.499     228.025
  H      -37.131     111.475     229.457
  H      -38.868     111.359     229.603

 6  7  8  9  10  11  12  13  14  15  25  28  32  33  34  35 0
 6-311+G(2d,p)
 ****
 36  39  40 0
 6-311+G(2d,p)
 ****
 1  2  3  4  5  16  17  18  19  20  21  22  23  24 0
 3-21G
 ****
 26  27  29  30  31  37  38  41  42  43  44  45  46  47 0
 3-21G
 ****
 48 0
 3-21G
 ****


