%nproc=1
%NoSave
%Mem=1900MB
#P OB98/GEN NMR

erre ene a

0 1
  C       65.435    -200.684    -342.537
  O       65.265    -199.614    -341.602
  P       64.230    -198.453    -342.016
  C       61.712    -198.969    -342.435
  O       62.778    -198.899    -341.495
  C       60.452    -198.319    -341.870
  O       60.094    -198.899    -340.601
  C       60.584    -196.826    -341.601
  O       60.440    -196.062    -342.789
  C       59.410    -196.589    -340.663
  O       58.201    -196.424    -341.423
  C       59.361    -197.897    -339.851
  N       58.646    -196.397    -335.064
  C       57.784    -196.356    -336.142
  N       56.545    -195.870    -335.905
  N       58.104    -196.754    -337.344
  C       59.367    -197.244    -337.428
  C       60.314    -197.336    -336.436
  C       59.954    -196.862    -335.114
  O       60.691    -196.845    -334.132
  N       61.478    -197.896    -336.898
  C       61.225    -198.169    -338.164
  N       59.962    -197.779    -338.538
  O       64.121    -198.622    -343.604
  O       64.668    -197.084    -341.626
  H       57.458    -196.421    -340.785
  H       63.885    -197.770    -344.015
  H       58.349    -196.071    -334.160
  H       61.917    -198.648    -338.847
  H       58.336    -198.262    -339.732
  H       59.526    -195.685    -340.054
  H       56.209    -195.612    -334.989
  H       61.527    -196.604    -341.079
  H       55.889    -195.866    -336.676
  H       59.630    -198.498    -342.578
  H       61.504    -200.012    -342.681
  H       62.023    -198.482    -343.364
  P       61.490    -194.867    -343.022
  C       64.001    -194.789    -343.667
  O       62.910    -195.576    -343.229
  O       61.597    -194.190    -341.574
  O       61.082    -193.886    -344.070
  H       61.819    -193.246    -341.659
  H       64.032    -193.829    -343.143
  H       63.921    -194.619    -344.745
  H       64.928    -195.332    -343.460
  H       66.143    -201.387    -342.150
  H       65.793    -200.292    -343.466
  H       64.496    -201.173    -342.694

 3  4  5  6  7  8  9  10  11  12  23  26  30  31  33  0
 6-311+G(2d,p)
 ****
 35  36  37  38 0
 6-311+G(2d,p)
 ****
 1  2  13  14  15  16  17  18  19  20  21  22  24  25  27  28  29 0
 3-21G
 ****
 32  34  39  40  41  42  43  44  45  46  47  48  49 0
 3-21G
 ****


