%nproc=1
%NoSave
%Mem=1900MB
#P OB98/GEN NMR

erre ene a

0 1
  C     -351.718     429.598    -661.130
  O     -350.351     429.404    -660.820
  H     -352.101     430.422    -660.518
  H     -352.292     428.696    -660.899
  H     -351.835     429.858    -662.185
  P     -349.605     428.211    -661.600
  C     -348.906     429.909    -663.428
  O     -349.522     428.670    -663.138
  C     -347.920     429.761    -664.589
  O     -346.682     429.173    -664.134
  C     -348.425     428.883    -665.728
  O     -349.265     429.619    -666.603
  C     -347.117     428.460    -666.381
  O     -346.605     429.490    -667.259
  C     -346.198     428.270    -665.167
  N     -344.045     423.736    -665.714
  C     -343.792     424.926    -666.360
  N     -342.863     424.888    -667.349
  N     -344.400     426.044    -666.089
  C     -345.328     425.922    -665.110
  C     -345.658     424.804    -664.381
  C     -344.948     423.577    -664.677
  O     -345.081     422.504    -664.091
  N     -346.631     425.081    -663.456
  C     -346.920     426.359    -663.659
  N     -346.166     426.904    -664.663
  O     -350.700     427.040    -661.626
  O     -348.324     427.752    -660.991
  H     -345.651     429.345    -667.395
  H     -350.241     426.178    -661.615
  H     -343.529     422.907    -665.959
  H     -347.665     426.911    -663.110
  H     -345.162     428.549    -665.386
  H     -347.242     427.567    -666.997
  H     -342.618     424.025    -667.814
  H     -348.942     427.996    -665.339
  H     -342.686     425.753    -667.846
  H     -347.681     430.765    -664.954
  H     -348.353     430.255    -662.540
  H     -349.668     430.651    -663.685
  P     -350.272     428.790    -667.541
  C     -352.157     429.705    -665.993
  O     -351.621     428.588    -666.690
  O     -349.626     427.328    -667.570
  O     -350.451     429.351    -668.920
  H     -349.996     426.809    -668.309
  H     -353.048     429.411    -665.479
  H     -352.388     430.483    -666.690
  H     -351.438     430.062    -665.285

 6  7  8  9  10  11  12  13  14  15  26  29  33  34 0
 6-311+G(2d,p)
 ****
 36  38  39  40  41 0
 6-311+G(2d,p)
 ****
 1  2  3  4  5  16  17  18  19  20  21  22  23  24  25 0
 3-21G
 ****
 27  28  30  31  32  35  37  42  43  44  45  46  47 0
 3-21G
 ****
 48  49 0
 3-21G
 ****


