%nproc=1
%NoSave
%Mem=1900MB
#P OB98/GEN NMR

erre ene a

0 1
  C     -321.344     -77.259      70.216
  O     -322.628     -77.348      70.801
  H     -321.205     -78.110      69.543
  H     -320.565     -77.288      70.983
  H     -321.259     -76.337      69.633
  P     -323.028     -76.308      71.954
  C     -324.055     -74.057      71.232
  O     -324.266     -75.454      71.388
  C     -325.293     -73.385      70.627
  O     -325.277     -73.602      69.190
  C     -326.617     -73.929      71.178
  O     -327.539     -72.840      71.289
  C     -327.058     -74.890      70.091
  O     -328.457     -75.101      70.117
  C     -326.528     -74.218      68.822
  N     -326.360     -75.189      67.738
  C     -327.522     -75.564      67.051
  O     -328.611     -75.070      67.356
  N     -327.438     -76.532      66.083
  C     -326.306     -77.121      65.857
  N     -326.300     -78.099      64.910
  C     -325.059     -76.780      66.576
  C     -325.159     -75.813      67.492
  O     -321.911     -75.489      72.517
  O     -323.706     -77.229      73.076
  H     -328.918     -74.245      69.978
  H     -323.029     -77.531      73.713
  H     -324.140     -77.304      66.354
  H     -324.297     -75.502      68.076
  H     -327.209     -73.428      68.485
  H     -326.568     -75.863      70.240
  H     -326.507     -74.425      72.146
  H     -325.215     -72.300      70.786
  H     -327.183     -78.316      64.463
  H     -323.199     -73.917      70.564
  H     -325.487     -78.653      64.678
  H     -323.823     -73.605      72.202
  P     -327.985     -72.289      72.731
  C     -325.907     -71.114      73.660
  O     -327.178     -70.932      73.043
  O     -327.945     -73.302      73.827
  O     -329.487     -71.772      72.495
  H     -329.997     -71.869      73.324
  H     -325.451     -70.160      73.826
  H     -325.281     -71.702      73.021
  H     -326.034     -71.617      74.596

 6  7  8  9  10  11  12  13  14  15  16  26  30  31  32  33  35 0
 6-311+G(2d,p)
 ****
 37  38 0
 6-311+G(2d,p)
 ****
 1  2  3  4  5  17  18  19  20  21  22  23  24  25 0
 3-21G
 ****
 27  28  29  34  36  39  40  41  42  43  44  45  46 0
 3-21G
 ****


