%nproc=1
%NoSave
%Mem=1900MB
#P OB98/GEN NMR

erre ene a

0 1
  C     -569.444      48.068     250.343
  O     -569.161      48.807     251.519
  H     -570.455      47.659     250.425
  H     -568.739      47.243     250.232
  H     -569.398      48.717     249.463
  P     -567.724      49.510     251.644
  C     -568.026      49.248     254.196
  O     -567.155      49.093     253.082
  C     -567.840      48.096     255.176
  O     -568.397      46.883     254.637
  C     -566.372      47.794     255.504
  O     -565.895      48.696     256.484
  C     -566.500      46.365     256.010
  O     -567.018      46.370     257.353
  C     -567.533      45.778     255.032
  N     -564.930      41.848     253.176
  C     -565.268      42.150     254.487
  N     -564.807      41.306     255.433
  N     -565.970      43.199     254.825
  C     -566.303      43.987     253.780
  C     -566.009      43.798     252.445
  C     -565.274      42.611     252.072
  O     -564.971      42.291     250.923
  N     -566.460      44.851     251.678
  C     -567.050      45.647     252.545
  N     -566.971      45.179     253.835
  O     -567.683      50.987     251.382
  O     -566.799      48.691     250.624
  H     -566.500      47.035     257.848
  H     -566.786      49.111     249.745
  H     -564.368      41.032     252.982
  H     -567.553      46.573     252.292
  H     -568.167      45.023     255.509
  H     -565.544      45.835     256.032
  H     -564.042      40.672     255.253
  H     -565.750      47.793     254.601
  H     -564.996      41.539     256.399
  H     -568.400      48.333     256.087
  H     -569.054      49.265     253.811
  H     -567.827      50.200     254.707
  P     -564.460      49.398     256.327
  C     -564.790      50.073     258.800
  O     -563.901      49.552     257.825
  O     -564.456      50.657     255.522
  O     -563.513      48.252     255.726
  H     -563.519      48.216     254.738
  H     -564.293      50.122     259.746
  H     -565.646      49.436     258.879
  H     -565.102      51.055     258.510

 6  7  8  9  10  11  12  13  14  15  26  29  33  34 0
 6-311+G(2d,p)
 ****
 36  38  39  40  41 0
 6-311+G(2d,p)
 ****
 1  2  3  4  5  16  17  18  19  20  21  22  23  24  25 0
 3-21G
 ****
 27  28  30  31  32  35  37  42  43  44  45  46  47 0
 3-21G
 ****
 48  49 0
 3-21G
 ****


