%nproc=1
%NoSave
%Mem=1900MB
#P OB98/GEN NMR

erre ene a

0 1
  C        4.834      46.107    -126.222
  O        5.451      46.197    -127.491
  H        4.629      45.062    -125.976
  H        5.513      46.519    -125.472
  H        3.904      46.683    -126.210
  P        4.596      45.668    -128.742
  C        6.297      43.770    -129.228
  O        4.959      44.113    -128.904
  C        6.317      42.655    -130.270
  O        5.795      41.436    -129.703
  C        5.470      42.927    -131.509
  O        6.137      43.779    -132.427
  C        5.320      41.518    -132.063
  O        6.519      41.142    -132.767
  C        5.179      40.683    -130.781
  N        2.013      37.287    -128.632
  C        3.357      37.308    -128.768
  N        4.130      38.257    -129.334
  C        3.379      39.279    -129.774
  C        2.003      39.412    -129.688
  C        1.305      38.350    -129.090
  N       -0.078      38.310    -129.018
  N        1.589      40.596    -130.267
  C        2.694      41.157    -130.710
  N        3.801      40.403    -130.430
  O        5.326      46.363    -129.989
  O        3.141      45.993    -128.701
  H        7.267      41.341    -132.172
  H        4.838      47.170    -130.236
  H        3.881      36.444    -128.372
  H        2.741      42.098    -131.239
  H        5.707      39.726    -130.850
  H        4.488      41.419    -132.766
  H        4.480      43.314    -131.243
  H        7.363      42.471    -130.546
  H        6.815      43.429    -128.326
  H       -0.456      37.368    -129.017
  H       -0.547      38.990    -129.605
  H        6.804      44.659    -129.614
  P        5.298      44.982    -133.076
  C        5.175      43.680    -135.307
  O        4.450      44.347    -134.282
  O        6.425      45.845    -133.814
  O        4.526      45.812    -132.110
  H        6.398      46.767    -133.491
  H        4.492      43.308    -136.042
  H        5.723      42.864    -134.883
  H        5.855      44.366    -135.767

 6  7  8  9  10  11  12  13  14  15  25  28  32  33  34  35 0
 6-311+G(2d,p)
 ****
 36  39  40 0
 6-311+G(2d,p)
 ****
 1  2  3  4  5  16  17  18  19  20  21  22  23  24 0
 3-21G
 ****
 26  27  29  30  31  37  38  41  42  43  44  45  46  47  48 0
 3-21G
 ****


