%nproc=1
%NoSave
%Mem=1900MB
#P OB98/GEN NMR

erre ene a

0 1
  C      600.822    -899.096    -976.906
  O      601.084    -897.976    -977.754
  P      600.164    -897.696    -979.049
  C      599.872    -895.106    -979.096
  O      599.269    -896.386    -978.765
  C      600.063    -894.256    -977.784
  O      601.013    -894.926    -976.882
  C      600.612    -892.846    -978.002
  O      599.587    -892.006    -978.513
  C      601.119    -892.496    -976.609
  O      600.002    -892.036    -975.769
  C      601.649    -893.846    -976.104
  N      603.101    -893.936    -976.182
  C      603.821    -893.036    -975.413
  O      603.234    -892.186    -974.724
  N      605.182    -893.106    -975.411
  C      605.798    -893.956    -976.197
  N      607.175    -893.976    -976.175
  C      605.083    -894.896    -977.072
  C      603.725    -894.816    -977.050
  O      599.369    -898.856    -979.529
  O      601.204    -897.226    -980.196
  H      599.633    -891.246    -976.210
  H      600.856    -897.446    -981.052
  H      605.610    -895.576    -977.782
  H      603.146    -895.466    -977.650
  H      601.341    -894.016    -975.055
  H      601.857    -891.696    -976.639
  H      601.438    -892.896    -978.704
  H      599.103    -894.236    -977.260
  H      607.615    -893.336    -975.529
  H      599.232    -894.536    -979.770
  H      607.724    -894.606    -976.732
  H      600.840    -895.276    -979.540
  P      599.247    -891.986    -980.114
  C      596.725    -891.566    -980.188
  O      597.766    -892.546    -980.280
  O      600.307    -892.636    -980.994
  O      599.094    -890.416    -980.410
  H      599.381    -890.266    -981.347
  H      595.823    -891.976    -980.756
  H      597.010    -890.606    -980.709
  H      596.442    -891.356    -979.167
  H      601.534    -899.113    -976.107
  H      600.902    -900.000    -977.474
  H      599.834    -899.015    -976.502

 3  4  5  6  7  8  9  10  11  12  13  23  27  28  29  30  32 0
 6-311+G(2d,p)
 ****
 34  35 0
 6-311+G(2d,p)
 ****
 1  2  14  15  16  17  18  19  20  21  22  24  25  26 0
 3-21G
 ****
 31  33  36  37  38  39  40  41  42  43  44  45  46 0
 3-21G
 ****


