%nproc=1
%NoSave
%Mem=1900MB
#P OB98/GEN NMR

erre ene a

0 1
  C      158.339      33.621      46.419
  O      158.050      34.068      47.728
  H      159.372      33.891      46.177
  H      157.674      34.089      45.689
  H      158.242      32.533      46.364
  P      156.523      34.020      48.222
  C      154.354      35.229      47.509
  O      155.778      35.205      47.431
  C      153.813      36.626      47.200
  O      154.316      37.577      48.161
  C      154.243      37.165      45.845
  O      153.660      36.497      44.746
  C      154.039      38.664      46.008
  O      152.710      39.090      45.725
  C      154.342      38.865      47.513
  N      155.607      39.556      47.729
  C      155.581      40.936      47.558
  O      154.573      41.560      47.222
  N      156.771      41.584      47.742
  C      157.966      40.990      48.025
  O      159.009      41.624      48.137
  C      157.938      39.527      48.169
  C      156.777      38.885      48.017
  O      156.316      34.061      49.706
  O      155.941      32.701      47.529
  H      152.546      38.908      44.779
  H      155.099      32.416      47.958
  H      156.768      42.585      47.632
  H      158.868      39.023      48.390
  H      156.730      37.803      48.117
  H      153.549      39.463      47.982
  H      154.703      39.232      45.353
  H      155.325      37.013      45.748
  H      152.721      36.600      47.287
  H      154.073      34.951      48.530
  H      153.935      34.494      46.814
  P      154.398      36.309      43.342
  C      155.572      37.893      41.649
  O      154.604      37.762      42.684
  O      153.917      35.192      42.474
  O      155.896      35.939      43.819
  H      156.263      35.310      43.168
  H      155.598      38.908      41.311
  H      155.311      37.252      40.833
  H      156.535      37.618      42.025

 6  7  8  9  10  11  12  13  14  15  16  26  31  32  33  34  35 0
 6-311+G(2d,p)
 ****
 36  37 0
 6-311+G(2d,p)
 ****
 1  2  3  4  5  17  18  19  20  21  22  23  24  25 0
 3-21G
 ****
 27  28  29  30  38  39  40  41  42  43  44  45 0
 3-21G
 ****


