%nproc=1
%NoSave
%Mem=1900MB
#P OB98/GEN NMR

erre ene a

0 1
  C      -45.069      25.828      91.294
  O      -46.234      26.596      91.099
  P      -46.799      27.637      92.166
  C      -47.543      27.580      94.672
  O      -47.130      26.851      93.522
  C      -48.006      26.634      95.789
  O      -46.906      25.750      96.129
  C      -48.372      27.404      97.069
  O      -49.541      26.926      97.720
  C      -47.071      27.381      97.863
  O      -47.247      27.624      99.250
  C      -46.505      26.013      97.490
  N      -42.535      24.879     100.454
  C      -43.878      24.634     100.667
  N      -44.215      24.197     101.901
  N      -44.802      24.835      99.762
  C      -44.329      25.381      98.617
  C      -43.023      25.665      98.292
  C      -42.010      25.407      99.287
  O      -40.822      25.716      99.183
  N      -42.924      26.275      97.068
  C      -44.174      26.392      96.665
  N      -45.065      25.892      97.588
  O      -47.796      28.633      91.668
  O      -45.459      28.449      92.568
  H      -47.624      26.815      99.645
  H      -45.727      29.372      92.749
  H      -41.879      24.780     101.221
  H      -44.491      26.852      95.736
  H      -46.918      25.225      98.119
  H      -46.436      28.186      97.477
  H      -43.545      24.174     102.659
  H      -48.622      28.445      96.831
  H      -45.196      24.251     102.157
  H      -48.831      26.016      95.420
  H      -48.375      28.217      94.350
  H      -46.739      28.231      95.025
  P      -50.673      27.756      98.482
  C      -50.808      29.190     100.605
  O      -50.134      28.138      99.941
  O      -51.827      26.694      98.796
  O      -51.229      28.906      97.709
  H      -52.700      27.110      98.668
  H      -50.191      29.531     101.441
  H      -51.763      28.826     100.995
  H      -50.984      30.029      99.926
  H      -44.902      25.209      90.437
  H      -45.189      25.212      92.161
  H      -44.231      26.479      91.432

 3  4  5  6  7  8  9  10  11  12  23  26  30  31 0
 6-311+G(2d,p)
 ****
 33  35  36  37  38 0
 6-311+G(2d,p)
 ****
 1  2  13  14  15  16  17  18  19  20  21  22  24  25 0
 3-21G
 ****
 27  28  29  32  34  39  40  41  42  43  44  45  46  47  48  49 0
 3-21G
 ****


