%nproc=1
%NoSave
%Mem=1900MB
#P OB98/GEN NMR

erre ene a

0 1
  C      -37.196    -288.603    1399.175
  O      -36.202    -287.645    1398.875
  H      -37.813    -288.750    1398.284
  H      -37.828    -288.254    1399.993
  H      -36.731    -289.562    1399.443
  P      -35.069    -287.404    1399.987
  C      -32.440    -287.391    1399.955
  O      -33.657    -287.761    1399.309
  C      -31.266    -288.108    1399.288
  O      -31.415    -289.542    1399.375
  C      -31.124    -287.838    1397.810
  O      -30.679    -286.524    1397.527
  C      -30.137    -288.931    1397.413
  O      -28.792    -288.557    1397.760
  C      -30.628    -290.106    1398.298
  N      -31.381    -291.111    1397.522
  C      -30.651    -291.797    1396.544
  O      -29.465    -291.560    1396.362
  N      -31.305    -292.707    1395.759
  C      -32.577    -292.945    1395.959
  N      -33.180    -293.853    1395.159
  C      -33.364    -292.261    1397.005
  C      -32.717    -291.366    1397.741
  O      -35.303    -288.621    1401.000
  O      -35.086    -286.045    1400.630
  H      -28.532    -287.857    1397.119
  H      -35.308    -289.481    1400.562
  H      -34.425    -292.492    1397.145
  H      -33.235    -290.810    1398.527
  H      -29.770    -290.625    1398.765
  H      -30.150    -289.126    1396.345
  H      -32.076    -288.046    1397.297
  H      -30.346    -287.841    1399.836
  H      -32.605    -294.284    1394.434
  H      -32.478    -287.617    1401.026
  H      -34.166    -294.102    1395.191
  H      -32.329    -286.304    1399.846
  P      -30.911    -285.871    1396.086
  C      -31.308    -283.493    1395.184
  O      -31.276    -284.337    1396.332
  O      -31.871    -286.605    1395.194
  O      -29.422    -285.782    1395.476
  H      -28.815    -285.242    1395.985
  H      -31.563    -282.497    1395.481
  H      -32.039    -283.858    1394.493
  H      -30.346    -283.491    1394.716

 6  7  8  9  10  11  12  13  14  15  16  26  30  31  32  33  35 0
 6-311+G(2d,p)
 ****
 37  38 0
 6-311+G(2d,p)
 ****
 1  2  3  4  5  17  18  19  20  21  22  23  24  25 0
 3-21G
 ****
 27  28  29  34  36  39  40  41  42  43  44  45  46 0
 3-21G
 ****


