%nproc=1
%NoSave
%Mem=1900MB
#P OB98/GEN NMR

erre ene a

0 1
  C     -187.740     302.720    -450.113
  O     -186.983     303.422    -449.124
  P     -186.103     304.670    -449.640
  C     -187.353     306.432    -448.187
  O     -187.009     305.988    -449.495
  C     -186.965     307.894    -447.996
  O     -185.541     308.038    -447.845
  C     -187.328     308.799    -449.166
  O     -188.699     309.165    -449.144
  C     -186.443     310.010    -448.896
  O     -187.075     310.868    -447.929
  C     -185.182     309.366    -448.301
  N     -181.381     311.792    -450.624
  C     -182.292     312.257    -449.699
  N     -182.159     313.547    -449.315
  N     -183.253     311.527    -449.191
  C     -183.248     310.250    -449.644
  C     -182.401     309.668    -450.558
  C     -181.364     310.500    -451.134
  O     -180.551     310.144    -451.979
  N     -182.703     308.348    -450.755
  C     -183.714     308.118    -449.941
  N     -184.093     309.249    -449.253
  O     -186.046     304.435    -451.222
  O     -184.742     304.741    -449.034
  H     -186.511     311.661    -447.839
  H     -185.238     304.842    -451.593
  H     -180.667     312.396    -450.988
  H     -184.201     307.163    -449.807
  H     -184.815     309.923    -447.429
  H     -186.267     310.611    -449.787
  H     -181.401     314.147    -449.611
  H     -187.048     308.334    -450.121
  H     -182.797     313.900    -448.611
  H     -187.449     308.260    -447.079
  H     -186.842     305.821    -447.440
  H     -188.428     306.289    -448.036
  P     -189.691     308.369    -450.122
  C     -191.112     307.977    -447.988
  O     -190.572     307.430    -449.170
  O     -188.709     307.348    -450.876
  O     -190.443     309.234    -451.078
  H     -189.063     307.141    -451.762
  H     -191.521     308.982    -448.165
  H     -190.332     308.036    -447.218
  H     -191.917     307.332    -447.628
  H     -188.277     301.919    -449.649
  H     -187.078     302.323    -450.854
  H     -188.432     303.392    -450.576

 3  4  5  6  7  8  9  10  11  12  23  26  30  31  33  0
 6-311+G(2d,p)
 ****
 35  36  37  38 0
 6-311+G(2d,p)
 ****
 1  2  13  14  15  16  17  18  19  20  21  22  24  25  27  28  29 0
 3-21G
 ****
 32  34  39  40  41  42  43  44  45  46  47  48  49 0
 3-21G
 ****


