%nproc=1
%NoSave
%Mem=1900MB
#P OB98/GEN NMR

erre ene a

0 1
  C      301.755     121.769    -556.097
  O      302.528     120.688    -556.591
  P      301.913     119.212    -556.482
  C      304.003     118.138    -555.398
  O      303.150     118.193    -556.536
  C      305.113     117.120    -555.590
  O      304.529     115.784    -555.625
  C      305.914     117.292    -556.894
  O      307.311     117.108    -556.618
  C      305.468     116.123    -557.757
  O      306.449     115.755    -558.720
  C      305.203     115.072    -556.676
  N      305.476     110.340    -558.417
  C      306.452     111.111    -557.827
  N      307.687     110.567    -557.752
  N      306.238     112.318    -557.364
  C      304.949     112.719    -557.485
  C      303.889     112.037    -558.038
  C      304.151     110.730    -558.612
  O      303.355     110.026    -559.222
  N      302.730     112.763    -557.969
  C      303.082     113.894    -557.369
  N      304.429     113.930    -557.109
  O      301.196     119.022    -557.891
  O      300.949     119.006    -555.351
  H      306.635     116.549    -559.252
  H      300.252     118.799    -557.766
  H      305.697     109.427    -558.770
  H      302.407     114.711    -557.138
  H      306.157     114.699    -556.271
  H      304.548     116.396    -558.285
  H      307.911     109.636    -558.056
  H      305.762     118.254    -557.398
  H      308.412     111.124    -557.303
  H      305.777     117.146    -554.716
  H      303.415     117.866    -554.521
  H      304.439     119.136    -555.234
  P      308.326     117.866    -557.620
  C      309.530     115.890    -558.832
  O      309.573     116.873    -557.807
  O      308.917     119.048    -556.717
  O      307.684     118.363    -558.872
  H      309.227     119.788    -557.283
  H      308.677     116.040    -559.507
  H      309.454     114.902    -558.374
  H      310.457     115.950    -559.411
  H      302.291     122.684    -556.237
  H      301.564     121.624    -555.054
  H      300.826     121.815    -556.627

 3  4  5  6  7  8  9  10  11  12  23  26  30  31  33  0
 6-311+G(2d,p)
 ****
 35  36  37  38 0
 6-311+G(2d,p)
 ****
 1  2  13  14  15  16  17  18  19  20  21  22  24  25  27  28  29 0
 3-21G
 ****
 32  34  39  40  41  42  43  44  45  46  47  48  49 0
 3-21G
 ****


