%nproc=1
%NoSave
%Mem=1900MB
#P OB98/GEN NMR

erre ene a

0 1
  C      145.111     261.966    -437.684
  O      144.455     262.415    -438.853
  H      144.372     261.511    -437.021
  H      145.580     262.804    -437.162
  H      145.867     261.215    -437.933
  P      145.331     263.130    -439.988
  C      146.600     261.065    -440.883
  O      145.574     262.020    -441.120
  C      146.224     259.727    -441.502
  O      145.073     259.172    -440.838
  C      145.869     259.807    -442.987
  O      147.047     259.832    -443.776
  C      145.065     258.527    -443.148
  O      145.955     257.398    -443.203
  C      144.257     258.505    -441.841
  N      139.685     258.549    -444.033
  C      140.774     257.729    -444.265
  N      140.635     256.820    -445.256
  N      141.899     257.810    -443.605
  C      141.913     258.811    -442.695
  C      140.908     259.695    -442.386
  C      139.644     259.562    -443.084
  O      138.652     260.256    -442.897
  N      141.315     260.616    -441.454
  C      142.555     260.260    -441.172
  N      142.971     259.180    -441.910
  O      146.588     263.807    -439.528
  O      144.316     264.150    -440.680
  H      145.395     256.601    -443.251
  H      144.365     265.031    -440.268
  H      138.851     258.452    -444.588
  H      143.190     260.752    -440.444
  H      144.067     257.485    -441.487
  H      144.462     258.510    -444.055
  H      139.919     256.909    -445.965
  H      145.215     260.658    -443.204
  H      141.437     256.244    -445.475
  H      147.057     259.032    -441.336
  H      146.717     260.970    -439.798
  H      147.548     261.414    -441.307
  P      146.996     260.248    -445.327
  C      147.465     262.787    -445.190
  O      147.996     261.493    -445.455
  O      145.627     260.493    -445.866
  O      147.789     259.086    -446.082
  H      147.217     258.328    -446.346
  H      148.235     263.520    -445.311
  H      147.094     262.822    -444.187
  H      146.667     262.992    -445.873

 6  7  8  9  10  11  12  13  14  15  26  29  33  34 0
 6-311+G(2d,p)
 ****
 36  38  39  40  41 0
 6-311+G(2d,p)
 ****
 1  2  3  4  5  16  17  18  19  20  21  22  23  24  25 0
 3-21G
 ****
 27  28  30  31  32  35  37  42  43  44  45  46  47 0
 3-21G
 ****
 48  49 0
 3-21G
 ****


