%nproc=1
%NoSave
%Mem=1900MB
#P OB98/GEN NMR

erre ene a

0 1
  C      -55.427     347.760     -54.539
  O      -55.705     349.091     -54.139
  P      -56.897     349.856     -54.909
  C      -57.127     351.090     -57.186
  O      -56.263     350.477     -56.243
  C      -56.756     350.663     -58.607
  O      -56.734     349.224     -58.696
  C      -57.725     351.126     -59.681
  O      -57.551     352.499     -59.978
  C      -57.344     350.178     -60.820
  O      -56.152     350.641     -61.467
  C      -57.066     348.864     -60.061
  N      -59.334     344.953     -62.463
  C      -58.221     345.654     -62.739
  N      -57.692     346.701     -62.071
  C      -58.439     346.996     -60.995
  C      -59.615     346.383     -60.590
  C      -60.069     345.315     -61.377
  N      -61.214     344.597     -61.088
  N      -60.113     346.986     -59.455
  C      -59.250     347.930     -59.169
  N      -58.210     347.976     -60.060
  O      -57.149     351.136     -53.991
  O      -58.137     349.044     -55.104
  H      -56.014     350.089     -62.263
  H      -58.094     351.387     -53.991
  H      -57.670     345.333     -63.628
  H      -59.325     348.602     -58.323
  H      -56.220     348.317     -60.482
  H      -58.130     350.095     -61.581
  H      -58.760     350.944     -59.370
  H      -55.742     351.038     -58.819
  H      -57.035     352.184     -57.110
  H      -61.545     343.944     -61.779
  H      -61.827     344.961     -60.365
  H      -58.163     350.818     -56.952
  P      -58.569     353.162     -61.023
  C      -59.314     352.224     -63.300
  O      -58.228     352.430     -62.408
  O      -57.930     354.616     -61.223
  O      -60.002     353.138     -60.602
  H      -56.970     354.568     -61.401
  H      -58.933     351.773     -64.215
  H      -59.786     353.182     -63.539
  H      -60.046     351.554     -62.842
  H      -54.620     347.372     -53.952
  H      -55.154     347.748     -55.573
  H      -56.297     347.155     -54.393

 3  4  5  6  7  8  9  10  11  12  22  25  29  30  31  32 0
 6-311+G(2d,p)
 ****
 33  36  37 0
 6-311+G(2d,p)
 ****
 1  2  13  14  15  16  17  18  19  20  21  23  24  26 0
 3-21G
 ****
 27  28  34  35  38  39  40  41  42  43  44  45  46  47  48 0
 3-21G
 ****


