%nproc=1
%NoSave
%Mem=1900MB
#P OB98/GEN NMR

erre ene a

0 1
  C        4.964     316.038     -95.095
  O        3.643     315.805     -95.587
  P        3.364     314.507     -96.485
  C        3.113     315.812     -98.692
  O        3.834     314.810     -97.992
  C        3.590     315.912    -100.148
  O        4.884     316.580    -100.220
  C        3.758     314.533    -100.806
  O        3.449     314.602    -102.205
  C        5.248     314.276    -100.671
  O        5.699     313.304    -101.610
  C        5.798     315.685    -100.885
  N       10.796     315.323    -101.944
  C        9.701     315.160    -102.718
  N        8.401     315.295    -102.372
  C        8.288     315.651    -101.081
  C        9.314     315.861    -100.175
  C       10.624     315.676    -100.650
  N       11.739     315.812     -99.855
  N        8.813     316.210     -98.935
  C        7.503     316.161     -99.083
  N        7.139     315.863    -100.367
  O        2.001     313.914     -96.360
  O        4.484     313.478     -95.977
  H        5.619     313.696    -102.499
  H        4.089     312.589     -95.898
  H        9.890     314.878    -103.750
  H        6.782     316.321     -98.294
  H        5.815     315.958    -101.948
  H        5.473     313.911     -99.663
  H        3.161     313.737    -100.352
  H        2.880     316.524    -100.715
  H        3.242     316.776     -98.193
  H       12.627     315.546    -100.249
  H       11.617     315.928     -98.857
  H        2.042     315.588     -98.638
  P        1.917     314.305    -102.605
  C        2.007     311.701    -102.810
  O        1.606     312.830    -102.066
  O        1.616     314.560    -104.045
  O        1.123     315.267    -101.603
  H        1.389     315.194    -100.670
  H        1.818     310.802    -102.215
  H        3.075     311.745    -103.040
  H        1.431     311.635    -103.738
  H        4.976     316.939     -94.519
  H        5.640     316.132     -95.919
  H        5.265     315.217     -94.479

 3  4  5  6  7  8  9  10  11  12  22  25  29  30  31  32 0
 6-311+G(2d,p)
 ****
 33  36  37 0
 6-311+G(2d,p)
 ****
 1  2  13  14  15  16  17  18  19  20  21  23  24  26 0
 3-21G
 ****
 27  28  34  35  38  39  40  41  42  43  44  45  46  47  48 0
 3-21G
 ****


