%nproc=1
%NoSave
%Mem=1900MB
#P OB98/GEN NMR

erre ene a

0 1
  C      104.343     267.862    -893.190
  O      105.767     267.914    -893.064
  P      106.605     266.798    -893.870
  C      108.341     268.377    -894.994
  O      107.227     267.512    -895.170
  C      109.148     268.480    -896.283
  O      109.753     267.221    -896.626
  C      108.325     268.863    -897.513
  O      108.071     270.253    -897.564
  C      109.257     268.442    -898.640
  O      110.235     269.474    -898.870
  C      109.933     267.187    -898.062
  N      110.854     262.331    -899.210
  C      111.702     263.301    -898.710
  N      112.976     262.921    -898.460
  N      111.341     264.539    -898.480
  C      110.035     264.770    -898.750
  C      109.091     263.900    -899.250
  C      109.521     262.541    -899.530
  O      108.818     261.653    -900.000
  N      107.869     264.501    -899.380
  C      108.058     265.729    -898.940
  N      109.366     265.947    -898.560
  O      105.458     265.862    -894.479
  O      107.560     266.027    -893.025
  H      109.748     270.247    -899.230
  H      105.800     264.961    -894.624
  H      111.187     261.400    -899.370
  H      107.298     266.489    -898.870
  H      111.012     267.177    -898.250
  H      108.738     268.281    -899.580
  H      113.307     261.968    -898.540
  H      107.397     268.278    -897.555
  H      113.607     263.609    -898.062
  H      109.947     269.219    -896.132
  H      108.985     268.001    -894.199
  H      107.978     269.363    -894.682
  P      106.540     270.720    -897.691
  C      106.512     272.731    -896.059
  O      106.171     271.382    -896.283
  O      105.738     269.325    -897.689
  O      106.242     271.537    -898.900
  H      104.908     269.421    -898.191
  H      106.286     273.350    -896.937
  H      107.581     272.809    -895.822
  H      105.932     273.111    -895.211
  H      103.905     268.649    -892.612
  H      103.988     266.918    -892.834
  H      104.071     267.980    -894.218

 3  4  5  6  7  8  9  10  11  12  23  26  30  31  33  0
 6-311+G(2d,p)
 ****
 35  36  37  38 0
 6-311+G(2d,p)
 ****
 1  2  13  14  15  16  17  18  19  20  21  22  24  25  27  28  29 0
 3-21G
 ****
 32  34  39  40  41  42  43  44  45  46  47  48  49 0
 3-21G
 ****


