%nproc=1
%NoSave
%Mem=1900MB
#P OB98/GEN NMR

erre ene a

0 1
  C       -0.914    -685.846     608.909
  O       -0.893    -687.208     608.538
  H       -0.466    -685.257     608.110
  H       -0.333    -685.701     609.826
  H       -1.941    -685.511     609.065
  P       -1.532    -688.264     609.570
  C        0.741    -689.305     610.317
  O       -0.483    -689.486     609.609
  C        1.859    -690.118     609.663
  O        1.828    -691.472     610.187
  C        1.747    -690.202     608.138
  O        3.046    -690.032     607.560
  C        1.233    -691.606     607.880
  O        1.603    -692.091     606.590
  C        1.808    -692.386     609.066
  N        1.013    -693.580     609.374
  C        1.713    -694.790     609.451
  O        2.930    -694.821     609.259
  N        1.011    -695.943     609.701
  C       -0.286    -695.900     609.792
  N       -0.926    -697.083     610.014
  C       -1.063    -694.649     609.669
  C       -0.353    -693.543     609.463
  O       -2.766    -688.858     608.750
  O       -1.891    -687.708     610.903
  H        2.564    -691.924     606.466
  H       -3.378    -689.367     609.335
  H       -2.145    -694.666     609.735
  H       -0.851    -692.578     609.360
  H        2.846    -692.695     608.867
  H        0.134    -691.605     607.933
  H        1.075    -689.458     607.725
  H        2.827    -689.697     609.973
  H       -0.354    -697.917     610.086
  H        0.600    -689.627     611.358
  H       -1.930    -697.173     610.074
  H        1.004    -688.239     610.299
  P        3.233    -688.714     606.641
  C        4.168    -690.180     604.720
  O        4.357    -689.049     605.550
  O        3.940    -687.669     607.630
  O        1.948    -688.198     606.086
  H        3.282    -687.040     607.985
  H        4.996    -690.272     604.048
  H        3.265    -690.063     604.159
  H        4.101    -691.060     605.326

 6  7  8  9  10  11  12  13  14  15  16  26  30  31  32  33  35 0
 6-311+G(2d,p)
 ****
 37  38 0
 6-311+G(2d,p)
 ****
 1  2  3  4  5  17  18  19  20  21  22  23  24  25 0
 3-21G
 ****
 27  28  29  34  36  39  40  41  42  43  44  45  46 0
 3-21G
 ****


