%nproc=1
%NoSave
%Mem=1900MB
#P OB98/GEN NMR

erre ene a

0 1
  C       -9.114      -9.576      46.776
  O       -8.352      -8.409      46.472
  P       -8.201      -7.764      45.022
  C      -10.158      -6.018      44.822
  O       -8.780      -6.274      45.062
  C      -10.461      -4.513      44.894
  O      -10.175      -4.042      46.246
  C       -9.588      -3.692      43.936
  O      -10.300      -2.660      43.261
  C       -8.423      -3.270      44.815
  O       -7.706      -2.155      44.309
  C       -9.102      -3.075      46.169
  N       -6.207      -0.752      49.675
  C       -6.873      -0.212      48.593
  N       -6.744       1.118      48.405
  N       -7.591      -0.916      47.759
  C       -7.573      -2.243      48.014
  C       -6.940      -2.900      49.045
  C       -6.189      -2.104      49.993
  O       -5.597      -2.531      50.982
  N       -7.159      -4.253      48.986
  C       -7.906      -4.416      47.913
  N       -8.193      -3.222      47.292
  O       -8.629      -8.621      43.879
  O       -6.612      -7.523      44.877
  H       -8.303      -1.383      44.328
  H       -6.404      -7.631      43.926
  H       -5.688      -0.160      50.300
  H       -8.278      -5.367      47.549
  H       -9.542      -2.080      46.269
  H       -7.719      -4.111      44.857
  H       -6.111       1.697      48.934
  H       -9.212      -4.319      43.118
  H       -7.047       1.469      47.495
  H      -11.527      -4.359      44.700
  H      -10.704      -6.545      45.612
  H      -10.470      -6.440      43.866
  P      -10.330      -2.324      41.699
  C      -11.601      -4.158      40.437
  O      -11.689      -2.902      41.080
  O       -9.212      -3.268      41.051
  O      -10.056      -0.894      41.364
  H       -8.517      -2.719      40.636
  H      -12.505      -4.311      39.839
  H      -11.535      -4.951      41.187
  H      -10.729      -4.198      39.778
  H       -9.042      -9.786      47.823
  H       -8.733     -10.406      46.219
  H      -10.138      -9.411      46.515

 3  4  5  6  7  8  9  10  11  12  23  26  30  31 0
 6-311+G(2d,p)
 ****
 33  35  36  37  38 0
 6-311+G(2d,p)
 ****
 1  2  13  14  15  16  17  18  19  20  21  22  24  25 0
 3-21G
 ****
 27  28  29  32  34  39  40  41  42  43  44  45  46  47  48  49 0
 3-21G
 ****


