%nproc=1
%NoSave
%Mem=1900MB
#P OB98/GEN NMR

erre ene a

0 1
  C     -330.255    -640.053     -68.165
  O     -330.897    -641.062     -67.408
  P     -331.914    -640.657     -66.242
  C     -333.817    -640.159     -67.893
  O     -332.988    -639.641     -66.858
  C     -335.291    -639.973     -67.533
  O     -335.620    -640.733     -66.353
  C     -335.673    -638.534     -67.212
  O     -335.789    -637.767     -68.395
  C     -336.979    -638.737     -66.453
  O     -338.072    -638.926     -67.366
  C     -336.695    -640.037     -65.682
  N     -338.471    -638.574     -61.131
  C     -339.026    -638.560     -62.361
  N     -338.472    -638.931     -63.536
  C     -337.204    -639.328     -63.351
  C     -336.489    -639.363     -62.163
  C     -337.186    -638.985     -61.004
  N     -336.652    -639.054     -59.737
  N     -335.198    -639.800     -62.390
  C     -335.134    -640.014     -63.688
  N     -336.338    -639.805     -64.299
  O     -331.279    -640.211     -64.966
  O     -332.771    -641.989     -66.008
  H     -338.897    -638.814     -66.855
  H     -332.651    -642.296     -65.091
  H     -340.056    -638.213     -62.408
  H     -334.250    -640.335     -64.224
  H     -337.560    -640.708     -65.687
  H     -337.231    -637.886     -65.813
  H     -334.930    -638.090     -66.538
  H     -335.895    -640.359     -68.364
  H     -333.597    -641.224     -68.009
  H     -337.282    -638.897     -58.966
  H     -335.826    -639.631     -59.591
  H     -333.589    -639.646     -68.830
  P     -335.955    -636.178     -68.302
  C     -333.490    -635.494     -68.131
  O     -334.721    -635.628     -67.443
  O     -337.298    -635.691     -67.869
  O     -335.607    -635.677     -69.783
  H     -336.126    -634.877     -69.987
  H     -333.020    -636.477     -68.238
  H     -332.833    -634.845     -67.547
  H     -333.641    -635.050     -69.122
  H     -329.616    -640.506     -68.894
  H     -329.672    -639.436     -67.514
  H     -330.992    -639.455     -68.659

 3  4  5  6  7  8  9  10  11  12  22  25  29  30  31  32 0
 6-311+G(2d,p)
 ****
 33  36  37 0
 6-311+G(2d,p)
 ****
 1  2  13  14  15  16  17  18  19  20  21  23  24  26 0
 3-21G
 ****
 27  28  34  35  38  39  40  41  42  43  44  45  46  47  48 0
 3-21G
 ****


