%nproc=1
%NoSave
%Mem=1900MB
#P OB98/GEN NMR

erre ene a

0 1
  C     -212.875    -891.440    -897.310
  O     -214.123    -891.980    -897.810
  P     -214.100    -893.290    -898.750
  C     -215.676    -894.930    -897.430
  O     -214.345    -894.580    -897.860
  C     -215.771    -894.910    -895.920
  O     -215.439    -893.600    -895.380
  C     -217.126    -895.230    -895.350
  O     -217.416    -896.620    -895.420
  C     -217.018    -894.690    -893.940
  O     -216.378    -895.660    -893.060
  C     -216.141    -893.450    -894.130
  N     -216.889    -892.190    -894.080
  C     -217.520    -891.920    -892.880
  O     -217.508    -892.670    -891.900
  N     -218.203    -890.730    -892.830
  C     -218.367    -889.850    -893.850
  O     -219.004    -888.800    -893.770
  C     -217.729    -890.260    -895.140
  C     -217.055    -891.390    -895.200
  O     -212.545    -893.380    -899.130
  O     -214.936    -893.160    -900.000
  H     -216.232    -895.190    -892.200
  H     -212.443    -893.830    -899.990
  H     -218.643    -890.470    -891.950
  H     -217.858    -889.610    -896.000
  H     -216.580    -891.700    -896.130
  H     -215.362    -893.410    -893.370
  H     -217.995    -894.480    -893.500
  H     -217.894    -894.650    -895.900
  H     -214.981    -895.630    -895.520
  H     -215.905    -895.920    -897.800
  H     -216.366    -894.210    -897.880
  P     -218.463    -897.120    -896.580
  C     -217.104    -899.320    -897.030
  O     -217.584    -898.090    -897.510
  O     -218.636    -895.770    -897.390
  O     -219.699    -897.690    -895.990
  H     -217.819    -895.200    -897.390
  H     -217.797    -899.760    -896.300
  H     -216.099    -899.170    -896.580
  H     -216.989    -900.000    -897.880
  H     -213.075    -890.578    -896.708
  H     -212.251    -891.163    -898.134
  H     -212.377    -892.180    -896.719

 3  4  5  6  7  8  9  10  11  12  13  23  28  29  30  31  32 0
 6-311+G(2d,p)
 ****
 33  34 0
 6-311+G(2d,p)
 ****
 1  2  14  15  16  17  18  19  20  21  22  24  25  26 0
 3-21G
 ****
 27  35  36  37  38  39  40  41  42  43  44  45 0
 3-21G
 ****


