%nproc=1
%NoSave
%Mem=1900MB
#P OB98/GEN NMR

erre ene a

0 1
  C     -342.886    -887.253     641.989
  O     -342.569    -886.132     641.152
  P     -341.166    -885.409     641.430
  C     -342.219    -883.059     641.134
  O     -341.206    -883.959     640.744
  C     -342.232    -881.824     640.226
  O     -340.929    -881.173     640.174
  C     -342.605    -882.117     638.793
  O     -344.014    -882.248     638.671
  C     -342.052    -880.900     638.054
  O     -342.975    -879.796     638.110
  C     -340.790    -880.579     638.855
  N     -338.001    -880.755     634.604
  C     -339.301    -880.304     634.796
  N     -339.935    -879.820     633.724
  N     -339.907    -880.333     635.948
  C     -339.158    -880.858     636.956
  C     -337.858    -881.312     636.900
  C     -337.191    -881.273     635.603
  O     -336.037    -881.638     635.373
  N     -337.407    -881.709     638.123
  C     -338.470    -881.616     638.896
  N     -339.545    -881.046     638.256
  O     -340.145    -886.249     640.531
  O     -340.772    -885.424     642.869
  H     -343.136    -879.571     639.039
  H     -339.546    -886.774     641.103
  H     -337.591    -880.725     633.683
  H     -338.505    -881.920     639.936
  H     -340.669    -879.503     638.997
  H     -341.878    -881.119     636.999
  H     -339.524    -879.752     632.789
  H     -342.102    -883.039     638.450
  H     -340.885    -879.468     633.848
  H     -342.936    -881.093     640.668
  H     -342.067    -882.741     642.179
  H     -343.192    -883.568     641.101
  P     -344.590    -883.372     637.673
  C     -346.687    -881.852     637.429
  O     -346.184    -883.168     637.592
  O     -344.416    -884.731     638.487
  O     -343.878    -883.437     636.360
  H     -344.042    -885.420     637.921
  H     -347.625    -881.901     636.896
  H     -345.995    -881.207     636.881
  H     -346.878    -881.407     638.427
  H     -343.840    -887.648     641.709
  H     -342.916    -886.938     643.011
  H     -342.138    -888.009     641.871

 3  4  5  6  7  8  9  10  11  12  23  26  30  31 0
 6-311+G(2d,p)
 ****
 33  35  36  37  38 0
 6-311+G(2d,p)
 ****
 1  2  13  14  15  16  17  18  19  20  21  22  24  25 0
 3-21G
 ****
 27  28  29  32  34  39  40  41  42  43  44  45  46  47  48  49 0
 3-21G
 ****


