%nproc=1
%NoSave
%Mem=1900MB
#P OB98/GEN NMR

erre ene a

0 1
  C      -98.596     -42.196     164.507
  O      -99.769     -42.839     164.966
  P      -99.833     -44.434     165.087
  C      -99.518     -44.417     167.627
  O      -98.987     -44.856     166.384
  C      -99.527     -45.546     168.658
  O      -99.928     -45.008     169.948
  C     -100.474     -46.707     168.331
  O      -99.854     -47.900     168.824
  C     -101.699     -46.386     169.173
  O     -102.520     -47.522     169.411
  C     -101.032     -45.812     170.416
  N     -105.157     -45.842     173.433
  C     -104.538     -46.827     172.750
  N     -103.457     -46.736     171.949
  C     -103.019     -45.467     171.887
  C     -103.566     -44.354     172.503
  C     -104.684     -44.577     173.325
  N     -105.308     -43.594     174.055
  N     -102.865     -43.216     172.148
  C     -101.917     -43.640     171.338
  N     -101.931     -44.999     171.204
  O      -99.480     -45.181     163.844
  O     -101.342     -44.727     165.527
  H     -103.150     -47.303     170.122
  H     -101.844     -45.093     164.770
  H     -104.958     -47.823     172.869
  H     -101.200     -43.010     170.829
  H     -100.627     -46.595     171.067
  H     -102.307     -45.630     168.662
  H     -100.709     -46.806     167.267
  H      -98.497     -45.911     168.771
  H     -100.545     -44.080     167.457
  H     -106.012     -43.885     174.714
  H     -104.824     -42.710     174.203
  H      -98.936     -43.567     168.002
  P     -100.170     -49.311     168.131
  C      -97.879     -49.378     166.985
  O      -99.285     -49.370     166.799
  O     -101.617     -49.627     167.953
  O      -99.445     -50.369     169.094
  H      -99.803     -51.263     168.922
  H      -97.533     -48.358     167.163
  H      -97.404     -49.769     166.081
  H      -97.601     -50.011     167.833
  H      -98.750     -41.137     164.497
  H      -98.369     -42.533     163.517
  H      -97.781     -42.432     165.160

 3  4  5  6  7  8  9  10  11  12  22  25  29  30  31  32 0
 6-311+G(2d,p)
 ****
 33  36  37 0
 6-311+G(2d,p)
 ****
 1  2  13  14  15  16  17  18  19  20  21  23  24  26 0
 3-21G
 ****
 27  28  34  35  38  39  40  41  42  43  44  45  46  47  48 0
 3-21G
 ****


