%nproc=1
%NoSave
%Mem=1900MB
#P OB98/GEN NMR

erre ene a

0 1
  C      -92.921      52.801      55.308
  O      -93.779      52.064      56.150
  H      -93.530      53.406      54.632
  H      -92.313      52.115      54.714
  H      -92.270      53.465      55.882
  P      -93.191      51.461      57.509
  C      -92.613      49.246      56.317
  O      -92.136      50.310      57.131
  C      -91.475      48.338      55.850
  O      -90.651      49.044      54.898
  C      -90.556      47.910      56.997
  O      -90.983      46.750      57.690
  C      -89.238      47.661      56.270
  O      -89.157      46.311      55.784
  C      -89.286      48.650      55.100
  N      -84.562      50.590      55.318
  C      -84.952      49.266      55.246
  N      -83.957      48.353      55.272
  N      -86.201      48.887      55.172
  C      -87.084      49.907      55.256
  C      -86.817      51.255      55.350
  C      -85.431      51.670      55.356
  O      -85.033      52.829      55.403
  N      -87.972      51.992      55.456
  C      -88.925      51.085      55.514
  N      -88.444      49.812      55.316
  O      -94.420      50.619      58.104
  O      -92.710      52.469      58.508
  H      -90.001      46.098      55.341
  H      -94.380      50.626      59.078
  H      -83.585      50.821      55.343
  H      -89.980      51.295      55.650
  H      -88.949      48.181      54.167
  H      -88.389      47.805      56.942
  H      -82.988      48.584      55.414
  H      -90.407      48.734      57.701
  H      -84.207      47.372      55.413
  H      -91.896      47.470      55.328
  H      -93.100      49.707      55.457
  H      -93.370      48.666      56.853
  P      -90.411      46.404      59.141
  C      -88.624      44.729      58.196
  O      -88.919      45.864      58.980
  O      -91.236      45.095      59.552
  O      -90.541      47.489      60.158
  H      -91.980      45.327      60.137
  H      -87.571      44.541      58.223
  H      -88.929      44.904      57.185
  H      -89.148      43.881      58.585

 6  7  8  9  10  11  12  13  14  15  26  29  33  34 0
 6-311+G(2d,p)
 ****
 36  38  39  40  41 0
 6-311+G(2d,p)
 ****
 1  2  3  4  5  16  17  18  19  20  21  22  23  24  25 0
 3-21G
 ****
 27  28  30  31  32  35  37  42  43  44  45  46  47 0
 3-21G
 ****
 48  49 0
 3-21G
 ****


