%nproc=1
%NoSave
%Mem=1900MB
#P OB98/GEN NMR

erre ene a

0 1
  C     -129.686     268.927     194.711
  O     -129.057     267.704     195.084
  P     -127.980     267.072     194.074
  C     -129.364     264.957     193.463
  O     -128.799     266.186     193.011
  C     -129.341     263.904     192.362
  O     -129.547     262.586     192.959
  C     -130.411     264.081     191.288
  O     -129.859     263.611     190.047
  C     -131.507     263.125     191.725
  O     -132.378     262.773     190.654
  C     -130.663     261.973     192.276
  N     -134.619     258.762     192.715
  C     -134.114     259.419     191.655
  N     -133.049     260.249     191.614
  C     -132.513     260.397     192.839
  C     -132.945     259.821     194.026
  C     -134.055     258.958     193.942
  N     -134.577     258.290     195.015
  N     -132.159     260.224     195.080
  C     -131.254     261.032     194.544
  N     -131.421     261.146     193.191
  O     -127.247     265.977     194.989
  O     -127.003     268.031     193.490
  H     -132.802     261.923     190.868
  H     -126.321     266.250     195.161
  H     -134.604     259.234     190.702
  H     -130.476     261.542     195.097
  H     -130.268     261.337     191.486
  H     -132.105     263.599     192.517
  H     -130.765     265.105     191.169
  H     -128.343     263.893     191.914
  H     -130.407     265.142     193.757
  H     -135.285     257.586     194.850
  H     -134.054     258.279     195.884
  H     -128.810     264.602     194.347
  P     -130.567     264.101     188.698
  C     -131.345     261.680     188.200
  O     -131.713     263.038     188.361
  O     -129.453     263.833     187.573
  O     -130.990     265.539     188.711
  H     -129.576     264.453     186.832
  H     -132.165     261.049     188.556
  H     -130.432     261.432     188.754
  H     -131.181     261.477     187.137
  H     -130.373     269.223     195.476
  H     -130.215     268.790     193.791
  H     -128.943     269.687     194.586

 3  4  5  6  7  8  9  10  11  12  22  25  29  30  31  32 0
 6-311+G(2d,p)
 ****
 33  36  37 0
 6-311+G(2d,p)
 ****
 1  2  13  14  15  16  17  18  19  20  21  23  24  26 0
 3-21G
 ****
 27  28  34  35  38  39  40  41  42  43  44  45  46  47  48 0
 3-21G
 ****


