%nproc=1
%NoSave
%Mem=1900MB
#P OB98/GEN NMR

erre ene a

0 1
  C      183.674     162.358    -374.091
  O      184.108     163.479    -374.843
  P      183.206     164.073    -376.029
  C      183.239     164.089    -378.581
  O      183.799     163.520    -377.412
  C      183.843     163.469    -379.849
  O      185.272     163.771    -379.889
  C      183.703     161.939    -379.941
  O      183.550     161.629    -381.331
  C      185.054     161.448    -379.454
  O      185.348     160.114    -379.879
  C      185.966     162.517    -380.045
  N      191.025     162.842    -380.722
  C      190.009     162.738    -381.600
  N      188.682     162.627    -381.342
  C      188.463     162.636    -380.018
  C      189.397     162.705    -379.002
  C      190.748     162.832    -379.395
  N      191.798     162.964    -378.516
  N      188.777     162.620    -377.765
  C      187.499     162.517    -378.041
  N      187.248     162.584    -379.384
  O      182.997     165.548    -375.983
  O      181.819     163.287    -375.884
  H      184.587     159.546    -379.648
  H      181.134     163.877    -375.507
  H      190.288     162.752    -382.649
  H      186.706     162.378    -377.307
  H      186.145     162.359    -381.119
  H      185.085     161.464    -378.360
  H      182.875     161.535    -379.359
  H      183.391     163.952    -380.719
  H      183.457     165.163    -378.569
  H      192.694     163.175    -378.904
  H      191.591     163.221    -377.550
  H      182.154     163.951    -378.580
  P      182.540     160.463    -381.781
  C      182.331     157.949    -381.365
  O      183.129     159.103    -381.189
  O      182.206     160.431    -383.232
  O      181.244     160.723    -380.876
  H      180.480     160.250    -381.264
  H      181.542     157.928    -380.618
  H      182.958     157.052    -381.255
  H      181.873     157.929    -382.367
  H      184.410     162.117    -373.353
  H      183.537     161.522    -374.744
  H      182.747     162.589    -373.609

 3  4  5  6  7  8  9  10  11  12  22  25  29  30  31  32 0
 6-311+G(2d,p)
 ****
 33  36  37 0
 6-311+G(2d,p)
 ****
 1  2  13  14  15  16  17  18  19  20  21  23  24  26 0
 3-21G
 ****
 27  28  34  35  38  39  40  41  42  43  44  45  46  47  48 0
 3-21G
 ****


