%nproc=1
%NoSave
%Mem=1900MB
#P OB98/GEN NMR

erre ene a

0 1
  C      436.115    -227.017    -375.365
  O      436.115    -226.725    -376.747
  H      436.189    -228.098    -375.233
  H      435.178    -226.672    -374.922
  H      436.961    -226.540    -374.862
  P      436.413    -225.210    -377.177
  C      438.982    -225.316    -377.529
  O      437.701    -225.248    -378.137
  C      440.072    -224.947    -378.538
  O      441.311    -224.692    -377.808
  C      440.358    -226.040    -379.581
  O      440.656    -225.415    -380.835
  C      441.631    -226.680    -379.057
  O      442.370    -227.335    -380.082
  C      442.337    -225.462    -378.464
  N      447.326    -225.670    -377.970
  C      446.545    -225.046    -378.921
  N      447.185    -224.429    -379.936
  N      445.236    -225.032    -378.883
  C      444.721    -225.667    -377.803
  C      445.387    -226.327    -376.798
  C      446.833    -226.349    -376.860
  O      447.581    -226.903    -376.058
  N      444.503    -226.896    -375.917
  C      443.308    -226.601    -376.404
  N      443.391    -225.858    -377.549
  O      436.972    -224.564    -375.821
  O      435.242    -224.453    -377.709
  H      442.774    -226.650    -380.650
  H      436.247    -224.127    -375.340
  H      448.327    -225.666    -378.053
  H      442.364    -226.916    -375.981
  H      442.801    -224.830    -379.235
  H      441.390    -227.414    -378.279
  H      448.188    -224.371    -380.016
  H      439.541    -226.756    -379.710
  H      446.626    -223.936    -380.620
  H      439.791    -224.007    -379.027
  H      439.156    -226.336    -377.174
  H      439.011    -224.637    -376.671
  P      439.616    -225.609    -382.042
  C      438.364    -223.404    -381.464
  O      439.031    -224.173    -382.454
  O      438.373    -226.324    -381.332
  O      440.144    -226.431    -383.169
  H      437.951    -226.946    -381.950
  H      438.035    -222.480    -381.892
  H      439.036    -223.204    -380.656
  H      437.519    -223.949    -381.099

 6  7  8  9  10  11  12  13  14  15  26  29  33  34 0
 6-311+G(2d,p)
 ****
 36  38  39  40  41 0
 6-311+G(2d,p)
 ****
 1  2  3  4  5  16  17  18  19  20  21  22  23  24  25 0
 3-21G
 ****
 27  28  30  31  32  35  37  42  43  44  45  46  47 0
 3-21G
 ****
 48  49 0
 3-21G
 ****


