%nproc=1
%NoSave
%Mem=1900MB
#P OB98/GEN NMR

erre ene a

0 1
  C      148.029    -101.181      29.195
  O      147.609    -102.524      29.331
  P      148.574    -103.738      28.937
  C      147.072    -104.307      26.920
  O      148.389    -103.982      27.357
  C      147.131    -105.212      25.683
  O      145.784    -105.711      25.403
  C      147.635    -104.476      24.425
  O      148.721    -105.121      23.757
  C      146.366    -104.311      23.602
  O      146.600    -104.095      22.222
  C      145.583    -105.574      23.982
  N      144.169    -105.486      23.624
  C      143.760    -106.167      22.480
  O      144.503    -106.833      21.765
  N      142.450    -106.006      22.123
  C      141.554    -105.164      22.714
  O      140.419    -104.997      22.286
  C      142.056    -104.442      23.900
  C      143.310    -104.649      24.310
  O      148.427    -104.968      29.767
  O      150.033    -103.080      29.000
  H      145.770    -103.777      21.823
  H      150.170    -102.324      28.400
  H      142.141    -106.491      21.297
  H      141.372    -103.761      24.383
  H      143.707    -104.131      25.177
  H      146.004    -106.465      23.506
  H      145.836    -103.428      23.977
  H      148.033    -103.484      24.678
  H      147.772    -106.065      25.924
  H      146.551    -103.385      26.665
  H      146.516    -104.784      27.735
  P      150.237    -104.599      23.748
  C      150.185    -103.687      21.315
  O      150.349    -103.404      22.688
  O      151.275    -105.666      23.610
  O      150.382    -103.852      25.160
  H      151.307    -103.900      25.461
  H      150.761    -102.958      20.737
  H      149.129    -103.581      21.049
  H      150.532    -104.690      21.062
  H      147.242    -100.528      29.510
  H      148.268    -100.984      28.171
  H      148.895    -101.015      29.801

 3  4  5  6  7  8  9  10  11  12  13  23  28  29  30  31  32 0
 6-311+G(2d,p)
 ****
 33  34 0
 6-311+G(2d,p)
 ****
 1  2  14  15  16  17  18  19  20  21  22  24  25  26  27 0
 3-21G
 ****
 35  36  37  38  39  40  41  42  43  44  45 0
 3-21G
 ****


