%nproc=1
%NoSave
%Mem=1900MB
#P OB98/GEN NMR

erre ene a

0 1
  C     -126.102    -848.832    -405.969
  O     -126.718    -849.006    -404.710
  H     -126.729    -849.295    -406.735
  H     -125.118    -849.307    -405.986
  H     -126.000    -847.765    -406.199
  P     -125.937    -848.511    -403.402
  C     -125.101    -846.170    -402.688
  O     -126.121    -846.917    -403.330
  C     -125.313    -844.663    -402.888
  O     -125.212    -844.357    -404.307
  C     -126.697    -844.169    -402.420
  O     -126.544    -842.807    -402.003
  C     -127.495    -844.246    -403.710
  O     -128.704    -843.532    -403.609
  C     -126.451    -843.742    -404.707
  N     -126.802    -844.058    -406.084
  C     -126.697    -843.018    -407.009
  O     -126.338    -841.897    -406.636
  N     -127.028    -843.253    -408.318
  C     -127.490    -844.410    -408.666
  N     -127.815    -844.580    -409.976
  C     -127.669    -845.527    -407.709
  C     -127.300    -845.287    -406.450
  O     -124.529    -848.986    -403.269
  O     -126.842    -849.032    -402.189
  H     -129.275    -843.904    -402.903
  H     -126.423    -849.808    -401.772
  H     -128.078    -846.471    -408.042
  H     -127.401    -846.042    -405.680
  H     -126.322    -842.653    -404.623
  H     -127.764    -845.285    -403.933
  H     -127.114    -844.771    -401.606
  H     -124.509    -844.119    -402.385
  H     -127.685    -843.784    -410.592
  H     -124.142    -846.473    -403.126
  H     -128.202    -845.429    -410.351
  H     -125.081    -846.398    -401.618
  P     -127.001    -842.291    -400.555
  C     -125.995    -842.471    -398.182
  O     -125.736    -842.271    -399.569
  O     -128.196    -843.004    -399.998
  O     -127.331    -840.731    -400.756
  H     -128.038    -840.470    -400.138
  H     -125.074    -842.435    -397.638
  H     -126.456    -843.426    -398.039
  H     -126.649    -841.702    -397.827

 6  7  8  9  10  11  12  13  14  15  16  26  30  31  32  33  35 0
 6-311+G(2d,p)
 ****
 37  38 0
 6-311+G(2d,p)
 ****
 1  2  3  4  5  17  18  19  20  21  22  23  24  25 0
 3-21G
 ****
 27  28  29  34  36  39  40  41  42  43  44  45  46 0
 3-21G
 ****


