%nproc=1
%NoSave
%Mem=1900MB
#P OB98/GEN NMR

erre ene a

0 1
  C        1.619     214.903     -20.911
  O        0.395     214.848     -20.206
  H        2.390     215.300     -20.245
  H        1.539     215.556     -21.784
  H        1.917     213.898     -21.226
  P       -0.943     214.540     -21.039
  C       -1.319     217.095     -21.090
  O       -1.262     215.891     -21.851
  C       -2.646     217.824     -21.317
  O       -2.833     218.088     -22.721
  C       -3.866     217.021     -20.896
  O       -3.991     216.846     -19.501
  C       -4.987     217.697     -21.673
  O       -5.536     218.828     -21.006
  C       -4.254     218.153     -22.958
  N       -4.648     217.367     -24.121
  C       -5.963     217.529     -24.544
  O       -6.772     218.264     -23.978
  N       -6.339     216.779     -25.623
  C       -5.560     215.866     -26.272
  O       -5.970     215.194     -27.210
  C       -4.187     215.719     -25.764
  C       -3.798     216.465     -24.726
  O       -2.103     214.025     -20.242
  O       -0.455     213.537     -22.185
  H       -4.791     219.420     -20.783
  H       -1.220     213.069     -22.597
  H       -7.285     216.890     -25.951
  H       -3.541     215.002     -26.252
  H       -2.790     216.373     -24.331
  H       -4.484     219.205     -23.172
  H       -5.812     217.008     -21.866
  H       -3.769     216.012     -21.316
  H       -2.605     218.786     -20.793
  H       -0.496     217.736     -21.420
  H       -1.186     216.865     -20.028
  P       -4.549     215.508     -18.831
  C       -7.033     216.260     -18.962
  O       -6.061     215.289     -19.332
  O       -4.238     215.300     -17.384
  O       -3.749     214.380     -19.663
  H       -3.572     213.638     -19.054
  H       -7.985     215.983     -19.364
  H       -6.747     217.216     -19.348
  H       -7.098     216.311     -17.895

 6  7  8  9  10  11  12  13  14  15  16  26  31  32  33  34  35 0
 6-311+G(2d,p)
 ****
 36  37 0
 6-311+G(2d,p)
 ****
 1  2  3  4  5  17  18  19  20  21  22  23  24  25 0
 3-21G
 ****
 27  28  29  30  38  39  40  41  42  43  44  45 0
 3-21G
 ****


