%nproc=1
%NoSave
%Mem=1900MB
#P OB98/GEN NMR

erre ene a

0 1
  C      604.011    1152.960     204.380
  O      602.695    1153.500     204.258
  P      602.506    1154.730     203.235
  C      600.830    1153.847     201.415
  O      602.174    1154.049     201.818
  C      600.627    1154.340     199.986
  O      600.802    1155.777     199.913
  C      601.597    1153.746     198.991
  O      601.270    1152.400     198.673
  C      601.443    1154.729     197.817
  O      600.266    1154.409     197.057
  C      601.242    1156.069     198.554
  N      602.434    1156.908     198.552
  C      602.407    1158.022     197.708
  O      601.436    1158.282     196.996
  N      603.524    1158.796     197.711
  C      604.661    1158.575     198.437
  O      605.621    1159.321     198.406
  C      604.658    1157.368     199.268
  C      603.560    1156.594     199.294
  O      604.001    1155.255     203.084
  O      601.521    1155.742     203.716
  H      604.658    1154.537     203.117
  H      599.562    1154.217     197.695
  H      603.502    1159.629     197.125
  H      605.551    1157.132     199.825
  H      603.543    1155.687     199.885
  H      600.427    1156.640     198.097
  H      602.295    1154.710     197.139
  H      602.617    1153.814     199.377
  H      599.592    1154.109     199.691
  H      600.152    1154.387     202.086
  H      600.594    1152.778     201.503
  P      602.251    1151.260     199.265
  C      600.156    1149.992     200.206
  O      601.428    1150.545     200.442
  O      603.333    1152.147     200.031
  O      602.793    1150.345     198.223
  H      602.941    1152.878     200.548
  H      599.927    1149.278     201.002
  H      600.131    1149.467     199.237
  H      599.391    1150.787     200.214
  H      604.002    1152.155     205.085
  H      604.680    1153.723     204.719
  H      604.337    1152.597     203.428

 3  4  5  6  7  8  9  10  11  12  13  24  28  29  30  31  32 0
 6-311+G(2d,p)
 ****
 33  34 0
 6-311+G(2d,p)
 ****
 1  2  14  15  16  17  18  19  20  21  22  23  25  26  27 0
 3-21G
 ****
 35  36  37  38  39  40  41  42  43  44  45 0
 3-21G
 ****


