%nproc=1
%NoSave
%Mem=1900MB
#P OB98/GEN NMR

erre ene a

0 1
  C     -223.785     432.673     134.482
  O     -223.559     431.305     134.762
  H     -223.293     433.276     135.247
  H     -224.860     432.876     134.515
  H     -223.385     432.945     133.501
  P     -223.842     430.257     133.581
  C     -226.236     429.922     134.536
  O     -225.440     430.197     133.393
  C     -227.539     429.239     134.125
  O     -227.218     428.025     133.384
  C     -228.438     428.839     135.310
  O     -229.812     429.019     134.932
  C     -228.177     427.347     135.439
  O     -229.243     426.664     136.087
  C     -227.992     426.963     133.973
  N     -228.163     422.219     135.608
  C     -229.068     423.254     135.757
  N     -230.161     423.013     136.512
  N     -228.907     424.431     135.214
  C     -227.780     424.539     134.473
  C     -226.807     423.593     134.247
  C     -226.984     422.296     134.867
  O     -226.213     421.344     134.787
  N     -225.787     424.110     133.485
  C     -226.136     425.366     133.266
  N     -227.335     425.673     133.844
  O     -223.492     428.854     134.269
  O     -223.058     430.475     132.329
  H     -229.334     425.785     135.676
  H     -222.571     428.605     134.062
  H     -228.325     421.336     136.056
  H     -225.548     426.090     132.718
  H     -228.944     426.891     133.433
  H     -227.256     427.177     136.010
  H     -230.367     422.122     136.933
  H     -228.234     429.389     136.234
  H     -230.851     423.750     136.599
  H     -228.082     429.902     133.437
  H     -226.469     430.864     135.047
  H     -225.669     429.285     135.224
  P     -230.542     430.376     135.371
  C     -230.945     429.718     137.855
  O     -230.309     430.600     136.938
  O     -232.094     430.003     135.273
  O     -230.207     431.551     134.502
  H     -232.606     430.784     134.983
  H     -230.691     430.000     138.855
  H     -230.617     428.716     137.672
  H     -232.006     429.775     137.727

 6  7  8  9  10  11  12  13  14  15  26  29  33  34 0
 6-311+G(2d,p)
 ****
 36  38  39  40  41 0
 6-311+G(2d,p)
 ****
 1  2  3  4  5  16  17  18  19  20  21  22  23  24  25 0
 3-21G
 ****
 27  28  30  31  32  35  37  42  43  44  45  46  47 0
 3-21G
 ****
 48  49 0
 3-21G
 ****


