%nproc=1
%NoSave
%Mem=1900MB
#P OB98/GEN NMR

erre ene a

0 1
  C       50.722    -225.341    -349.547
  O       52.015    -225.920    -349.359
  P       53.361    -225.395    -350.036
  C       54.163    -222.955    -349.478
  O       54.029    -224.310    -349.073
  C       54.275    -222.020    -348.260
  O       53.401    -222.524    -347.202
  C       55.697    -221.973    -347.680
  O       56.118    -220.663    -347.307
  C       55.656    -223.027    -346.587
  O       56.688    -222.882    -345.626
  C       54.226    -222.892    -346.071
  N       50.777    -224.990    -342.941
  C       51.030    -223.656    -343.195
  N       50.279    -222.756    -342.525
  N       51.947    -223.239    -344.026
  C       52.676    -224.238    -344.578
  C       52.534    -225.594    -344.384
  C       51.483    -226.045    -343.502
  O       51.203    -227.221    -343.253
  N       53.457    -226.302    -345.121
  C       54.168    -225.372    -345.734
  N       53.726    -224.105    -345.440
  O       53.270    -225.045    -351.484
  O       54.364    -226.655    -349.906
  H       56.523    -222.056    -345.128
  H       54.953    -226.621    -350.691
  H       50.041    -225.255    -342.305
  H       54.998    -225.567    -346.407
  H       54.132    -222.106    -345.321
  H       55.802    -224.006    -347.068
  H       49.641    -223.002    -341.783
  H       56.435    -222.269    -348.441
  H       50.613    -221.791    -342.548
  H       53.924    -221.022    -348.548
  H       53.258    -222.719    -350.044
  H       55.015    -222.833    -350.148
  P       57.606    -220.101    -347.137
  C       58.429    -219.240    -349.411
  O       57.820    -218.903    -348.181
  O       58.553    -221.252    -347.719
  O       57.988    -219.777    -345.730
  H       59.142    -221.582    -347.013
  H       58.758    -218.320    -349.906
  H       57.709    -219.750    -350.054
  H       59.300    -219.884    -349.248
  H       50.000    -225.889    -348.978
  H       50.462    -225.379    -350.584
  H       50.736    -224.322    -349.219

 3  4  5  6  7  8  9  10  11  12  23  26  30  31 0
 6-311+G(2d,p)
 ****
 33  35  36  37  38 0
 6-311+G(2d,p)
 ****
 1  2  13  14  15  16  17  18  19  20  21  22  24  25 0
 3-21G
 ****
 27  28  29  32  34  39  40  41  42  43  44  45  46  47  48  49 0
 3-21G
 ****


