%nproc=1
%NoSave
%Mem=1900MB
#P OB98/GEN NMR

erre ene a

0 1
  C     -284.624     239.688     117.089
  O     -283.241     239.474     117.299
  H     -285.177     239.255     117.928
  H     -284.956     239.207     116.166
  H     -284.835     240.760     117.049
  P     -282.237     239.768     116.083
  C     -282.005     242.273     116.648
  O     -282.469     241.314     115.701
  C     -282.333     243.696     116.196
  O     -281.719     244.663     117.075
  C     -281.817     244.045     114.808
  O     -282.432     243.340     113.757
  C     -281.878     245.566     114.826
  O     -283.184     246.060     114.528
  C     -281.519     245.871     116.302
  N     -280.161     246.386     116.447
  C     -279.926     247.177     117.566
  O     -280.795     247.464     118.391
  N     -278.654     247.661     117.691
  C     -277.635     247.479     116.806
  O     -276.517     247.958     116.970
  C     -277.953     246.665     115.623
  C     -279.184     246.162     115.501
  O     -282.345     238.833     114.914
  O     -280.793     239.776     116.769
  H     -283.791     245.670     115.187
  H     -280.075     239.702     116.095
  H     -278.457     248.223     118.508
  H     -277.172     246.507     114.894
  H     -279.445     245.554     114.633
  H     -282.211     246.618     116.714
  H     -281.191     246.011     114.106
  H     -280.752     243.781     114.764
  H     -283.420     243.833     116.263
  H     -280.919     242.161     116.729
  H     -282.458     242.071     117.624
  P     -282.290     243.740     112.219
  C     -280.599     241.871     111.528
  O     -280.851     243.260     111.698
  O     -282.754     245.105     111.835
  O     -283.275     242.671     111.513
  H     -283.680     243.118     110.741
  H     -279.598     241.730     111.177
  H     -281.287     241.468     110.814
  H     -280.723     241.369     112.465

 6  7  8  9  10  11  12  13  14  15  16  26  31  32  33  34  35 0
 6-311+G(2d,p)
 ****
 36  37 0
 6-311+G(2d,p)
 ****
 1  2  3  4  5  17  18  19  20  21  22  23  24  25 0
 3-21G
 ****
 27  28  29  30  38  39  40  41  42  43  44  45 0
 3-21G
 ****


