%nproc=1
%NoSave
%Mem=1900MB
#P OB98/GEN NMR

erre ene a

0 1
  C      326.687    -310.160    -132.021
  O      325.584    -309.275    -131.929
  P      325.647    -308.115    -130.823
  C      323.341    -309.199    -130.163
  O      324.186    -308.059    -130.162
  C      322.053    -308.901    -129.386
  O      322.363    -308.643    -128.002
  C      321.295    -307.672    -129.870
  O      320.570    -307.933    -131.061
  C      320.428    -307.364    -128.654
  O      319.276    -308.226    -128.631
  C      321.378    -307.722    -127.491
  N      322.012    -306.551    -126.887
  C      321.191    -305.733    -126.118
  O      319.994    -305.958    -125.937
  N      321.788    -304.626    -125.574
  C      323.082    -304.235    -125.771
  O      323.555    -303.209    -125.297
  C      323.892    -305.121    -126.621
  C      323.331    -306.217    -127.132
  O      325.719    -306.819    -131.760
  O      326.784    -308.270    -129.870
  H      325.298    -306.975    -132.626
  H      318.711    -307.959    -129.384
  H      321.222    -304.030    -124.992
  H      324.920    -304.833    -126.808
  H      323.912    -306.874    -127.767
  H      320.831    -308.259    -126.707
  H      320.065    -306.333    -128.643
  H      321.992    -306.845    -130.037
  H      321.411    -309.793    -129.436
  H      323.866    -310.033    -129.692
  H      323.109    -309.471    -131.201
  P      321.032    -307.122    -132.377
  C      318.589    -306.312    -132.833
  O      319.731    -306.996    -133.304
  O      321.937    -308.218    -133.111
  O      321.734    -305.841    -132.071
  H      321.547    -309.109    -133.086
  H      317.974    -306.026    -133.694
  H      318.861    -305.410    -132.281
  H      318.003    -306.975    -132.191
  H      326.506    -310.876    -132.796
  H      326.815    -310.669    -131.088
  H      327.572    -309.604    -132.248

 3  4  5  6  7  8  9  10  11  12  13  24  28  29  30  31  32 0
 6-311+G(2d,p)
 ****
 33  34 0
 6-311+G(2d,p)
 ****
 1  2  14  15  16  17  18  19  20  21  22  23  25  26  27 0
 3-21G
 ****
 35  36  37  38  39  40  41  42  43  44  45 0
 3-21G
 ****


