%nproc=1
%NoSave
%Mem=1900MB
#P OB98/GEN NMR

erre ene a

0 1
  C      374.319      41.354     -78.418
  O      373.915      42.351     -79.361
  P      374.343      42.100     -80.899
  C      375.288      44.395     -81.701
  O      374.182      43.497     -81.675
  C      374.860      45.779     -82.181
  O      373.887      45.673     -83.239
  C      374.185      46.639     -81.118
  O      375.132      47.237     -80.247
  C      373.481      47.679     -81.971
  O      374.412      48.718     -82.323
  C      373.070      46.878     -83.218
  N      368.303      48.390     -84.003
  C      369.484      49.101     -84.108
  N      369.383      50.386     -84.512
  N      370.660      48.592     -83.848
  C      370.608      47.282     -83.487
  C      369.508      46.476     -83.345
  C      368.203      47.061     -83.603
  O      367.117      46.494     -83.500
  N      369.850      45.201     -82.967
  C      371.172      45.234     -82.918
  N      371.680      46.471     -83.214
  O      373.140      41.215     -81.468
  O      375.665      41.412     -81.054
  H      374.975      48.877     -81.537
  H      373.447      40.660     -82.209
  H      367.419      48.839     -84.211
  H      371.803      44.386     -82.673
  H      373.274      47.422     -84.145
  H      372.649      48.165     -81.448
  H      368.516      50.820     -84.796
  H      373.430      46.049     -80.555
  H      370.241      50.908     -84.632
  H      375.746      46.302     -82.570
  H      376.071      44.010     -82.351
  H      375.724      44.449     -80.682
  P      374.997      46.926     -78.675
  C      375.609      49.071     -77.345
  O      376.069      47.875     -77.961
  O      375.624      45.458     -78.543
  O      373.597      46.988     -78.146
  H      375.219      44.976     -77.790
  H      374.692      48.903     -76.794
  H      375.450      49.831     -78.121
  H      376.387      49.436     -76.653
  H      373.980      41.629     -77.441
  H      375.386      41.276     -78.417
  H      373.893      40.411     -78.691

 3  4  5  6  7  8  9  10  11  12  23  26  30  31  33  0
 6-311+G(2d,p)
 ****
 35  36  37  38 0
 6-311+G(2d,p)
 ****
 1  2  13  14  15  16  17  18  19  20  21  22  24  25  27  28  29 0
 3-21G
 ****
 32  34  39  40  41  42  43  44  45  46  47  48  49 0
 3-21G
 ****


