%nproc=1
%NoSave
%Mem=1900MB
#P OB98/GEN NMR

erre ene a

0 1
  C      693.578    -542.304    1468.378
  O      692.647    -542.027    1469.422
  P      692.218    -543.163    1470.476
  C      690.598    -545.151    1470.392
  O      691.007    -543.951    1469.762
  C      689.127    -545.453    1470.026
  O      689.025    -545.559    1468.574
  C      688.553    -546.773    1470.562
  O      688.058    -546.710    1471.897
  C      687.399    -546.982    1469.588
  O      686.289    -546.143    1469.980
  C      687.986    -546.509    1468.258
  N      687.469    -549.230    1463.973
  C      686.766    -548.178    1464.473
  N      686.950    -547.541    1465.636
  C      688.013    -548.016    1466.290
  C      688.823    -549.083    1465.900
  C      688.524    -549.721    1464.689
  N      689.248    -550.749    1464.175
  N      689.833    -549.308    1466.832
  C      689.618    -548.401    1467.773
  N      688.547    -547.596    1467.483
  O      691.942    -542.659    1471.853
  O      693.426    -544.225    1470.420
  H      685.553    -546.320    1469.346
  H      693.388    -544.816    1471.195
  H      685.925    -547.849    1463.869
  H      690.198    -548.273    1468.665
  H      687.250    -545.980    1467.632
  H      687.024    -548.001    1469.600
  H      689.271    -547.591    1470.445
  H      688.497    -544.600    1470.342
  H      690.658    -545.012    1471.494
  H      689.019    -551.054    1463.226
  H      690.147    -550.996    1464.613
  H      691.236    -545.980    1470.105
  P      687.555    -548.087    1472.568
  C      686.076    -550.071    1471.708
  O      686.748    -548.843    1471.409
  O      686.830    -547.902    1473.860
  O      688.911    -548.923    1472.700
  H      689.314    -549.203    1471.838
  H      685.473    -550.325    1470.835
  H      685.429    -549.955    1472.581
  H      686.828    -550.860    1471.861
  H      693.728    -541.422    1467.790
  H      693.195    -543.086    1467.757
  H      694.510    -542.611    1468.804

 3  4  5  6  7  8  9  10  11  12  22  25  29  30  31  32 0
 6-311+G(2d,p)
 ****
 33  36  37 0
 6-311+G(2d,p)
 ****
 1  2  13  14  15  16  17  18  19  20  21  23  24  26 0
 3-21G
 ****
 27  28  34  35  38  39  40  41  42  43  44  45  46  47  48 0
 3-21G
 ****


