%nproc=1
%NoSave
%Mem=1900MB
#P OB98/GEN NMR

erre ene a

0 1
  C      104.516     173.286     106.278
  O      103.164     173.201     105.875
  H      104.818     172.326     106.704
  H      104.637     174.063     107.039
  H      105.153     173.509     105.418
  P      102.501     174.553     105.316
  C      102.897     173.610     102.915
  O      103.099     174.676     103.830
  C      102.805     174.160     101.496
  O      102.649     173.087     100.544
  C      101.617     175.087     101.263
  O      101.831     176.396     101.764
  C      101.548     175.066      99.748
  O      102.594     175.892      99.205
  C      101.814     173.571      99.457
  N      100.587     172.778      99.358
  C       99.710     173.106      98.317
  O       99.972     174.025      97.543
  N       98.535     172.403      98.196
  C       98.263     171.450      99.032
  N       97.080     170.797      98.874
  C       99.166     171.061     100.132
  C      100.295     171.759     100.235
  O      103.281     175.709     106.102
  O      101.015     174.641     105.407
  H      102.368     176.815      99.422
  H      103.031     176.590     105.735
  H       98.890     170.266     100.810
  H      101.006     171.530     101.021
  H      102.384     173.449      98.528
  H      100.602     175.446      99.356
  H      100.689     174.662     101.662
  H      103.754     174.664     101.267
  H       96.454     171.127      98.151
  H      101.968     173.097     103.183
  H       96.704     170.173      99.576
  H      103.728     172.900     102.976
  P      100.619     177.443     101.652
  C       99.300     176.073     103.421
  O       99.292     176.680     102.136
  O      100.405     177.579     100.072
  O      100.867     178.769     102.301
  H      100.198     178.500      99.823
  H       98.354     175.607     103.601
  H       99.478     176.819     104.167
  H      100.074     175.336     103.462

 6  7  8  9  10  11  12  13  14  15  16  26  30  31  32  33  35 0
 6-311+G(2d,p)
 ****
 37  38 0
 6-311+G(2d,p)
 ****
 1  2  3  4  5  17  18  19  20  21  22  23  24  25 0
 3-21G
 ****
 27  28  29  34  36  39  40  41  42  43  44  45  46 0
 3-21G
 ****


