%nproc=1
%NoSave
%Mem=1900MB
#P OB98/GEN NMR

erre ene a

0 1
  C      -63.938    -105.039     -76.329
  O      -64.874    -105.140     -75.273
  P      -66.324    -104.482     -75.472
  C      -67.417    -106.825     -75.954
  O      -67.166    -105.503     -76.383
  C      -68.902    -107.006     -75.626
  O      -69.687    -106.695     -76.814
  C      -69.289    -108.426     -75.178
  O      -70.326    -108.293     -74.198
  C      -69.832    -109.046     -76.456
  O      -70.690    -110.152     -76.203
  C      -70.533    -107.834     -77.081
  N      -70.756    -107.975     -78.522
  C      -72.000    -108.441     -78.944
  O      -72.906    -108.760     -78.180
  N      -72.159    -108.558     -80.304
  C      -71.204    -108.329     -81.249
  O      -71.397    -108.468     -82.451
  C      -69.898    -107.885     -80.742
  C      -69.740    -107.726     -79.427
  O      -65.983    -103.269     -76.454
  O      -66.989    -104.097     -74.195
  H      -65.283    -103.483     -77.095
  H      -71.319    -109.891     -75.508
  H      -73.064    -108.858     -80.633
  H      -69.110    -107.705     -81.463
  H      -68.787    -107.397     -79.028
  H      -71.491    -107.648     -76.580
  H      -68.996    -109.391     -77.074
  H      -68.443    -108.972     -74.754
  H      -69.179    -106.274     -74.857
  H      -66.828    -107.034     -75.053
  H      -67.101    -107.529     -76.731
  P      -70.433    -109.411     -73.045
  C      -68.934    -108.181     -71.289
  O      -69.119    -109.286     -72.138
  O      -70.145    -110.731     -73.911
  O      -71.743    -109.463     -72.334
  H      -69.367    -110.649     -74.483
  H      -68.186    -108.433     -70.531
  H      -69.861    -107.903     -70.781
  H      -68.570    -107.328     -71.870
  H      -63.027    -105.523     -76.045
  H      -63.744    -104.007     -76.537
  H      -64.335    -105.510     -77.204

 3  4  5  6  7  8  9  10  11  12  13  24  28  29  30  31  32 0
 6-311+G(2d,p)
 ****
 33  34 0
 6-311+G(2d,p)
 ****
 1  2  14  15  16  17  18  19  20  21  22  23  25  26  27 0
 3-21G
 ****
 35  36  37  38  39  40  41  42  43  44  45 0
 3-21G
 ****


