%nproc=1
%NoSave
%Mem=1900MB
#P OB98/GEN NMR

erre ene a

0 1
  C       43.606    -202.844     130.599
  O       42.618    -201.861     130.916
  P       42.823    -200.998     132.246
  C       42.484    -202.792     134.103
  O       43.393    -201.965     133.410
  C       43.173    -203.609     135.207
  O       43.846    -202.726     136.149
  C       42.221    -204.484     136.035
  O       42.933    -205.630     136.484
  C       41.921    -203.595     137.229
  O       41.398    -204.346     138.331
  C       43.300    -202.963     137.458
  N       45.768    -200.039     140.757
  C       46.101    -201.270     140.229
  N       47.289    -201.804     140.621
  N       45.343    -201.947     139.401
  C       44.200    -201.275     139.082
  C       43.752    -200.071     139.528
  C       44.580    -199.351     140.466
  O       44.332    -198.276     140.977
  N       42.527    -199.738     139.000
  C       42.248    -200.764     138.204
  N       43.221    -201.708     138.204
  O       41.302    -200.704     132.724
  O       43.569    -199.719     132.043
  H       40.608    -204.827     138.000
  H       41.079    -199.781     132.571
  H       46.378    -199.588     141.405
  H       41.326    -200.885     137.637
  H       43.974    -203.634     137.991
  H       41.176    -202.831     136.960
  H       47.949    -201.314     141.222
  H       41.314    -204.799     135.509
  H       47.567    -202.691     140.220
  H       43.956    -204.232     134.736
  H       41.990    -203.498     133.392
  H       41.669    -202.182     134.509
  P       42.154    -207.024     136.435
  C       41.176    -207.017     138.848
  O       40.922    -206.899     137.448
  O       43.165    -208.042     137.207
  O       41.826    -207.509     135.071
  H       43.012    -208.957     136.905
  H       41.153    -206.015     139.307
  H       42.131    -207.500     139.040
  H       40.360    -207.625     139.285
  H       43.338    -203.339     129.689
  H       43.663    -203.561     131.391
  H       44.557    -202.368     130.480

 3  4  5  6  7  8  9  10  11  12  23  26  30  31 0
 6-311+G(2d,p)
 ****
 33  35  36  37  38 0
 6-311+G(2d,p)
 ****
 1  2  13  14  15  16  17  18  19  20  21  22  24  25 0
 3-21G
 ****
 27  28  29  32  34  39  40  41  42  43  44  45  46  47  48  49 0
 3-21G
 ****


