%nproc=1
%NoSave
%Mem=1900MB
#P OB98/GEN NMR

erre ene a

0 1
  C      -49.700     263.835      19.043
  O      -49.442     263.709      20.424
  H      -48.763     263.680      18.494
  H      -50.078     264.833      18.814
  H      -50.425     263.078      18.729
  P      -50.664     264.006      21.423
  C      -50.073     262.251      23.249
  O      -50.963     262.637      22.212
  C      -49.891     260.731      23.213
  O      -49.277     260.346      21.961
  C      -48.964     260.197      24.292
  O      -49.599     260.080      25.555
  C      -48.598     258.840      23.713
  O      -49.585     257.840      24.022
  C      -48.549     259.118      22.203
  N      -47.181     259.196      21.712
  C      -46.415     258.038      21.863
  O      -46.848     257.012      22.382
  N      -45.113     258.126      21.445
  C      -44.508     259.231      20.938
  O      -43.320     259.253      20.630
  C      -45.354     260.424      20.810
  C      -46.631     260.367      21.197
  O      -51.909     264.164      20.432
  O      -50.481     265.207      22.300
  H      -52.165     265.107      20.370
  H      -49.193     256.981      23.742
  H      -44.543     257.293      21.550
  H      -44.902     261.331      20.411
  H      -47.276     261.222      21.126
  H      -49.068     258.332      21.647
  H      -47.655     258.481      24.112
  H      -48.060     260.808      24.356
  H      -50.881     260.256      23.274
  H      -50.491     262.527      24.220
  H      -49.119     262.764      23.114
  P      -49.150     261.109      26.714
  C      -51.524     261.123      27.844
  O      -50.493     261.845      27.189
  O      -48.375     262.204      25.846
  O      -48.347     260.462      27.793
  H      -48.703     262.245      24.921
  H      -52.330     261.786      28.079
  H      -51.141     260.693      28.746
  H      -51.879     260.345      27.201

 6  7  8  9  10  11  12  13  14  15  16  27  31  32  33  34  35 0
 6-311+G(2d,p)
 ****
 36  37 0
 6-311+G(2d,p)
 ****
 1  2  3  4  5  17  18  19  20  21  22  23  24  25 0
 3-21G
 ****
 26  28  29  30  38  39  40  41  42  43  44  45 0
 3-21G
 ****


