%nproc=1
%NoSave
%Mem=1900MB
#P OB98/GEN NMR

erre ene a

0 1
  C      -69.865     -15.101      91.865
  O      -69.596     -14.499      90.614
  P      -69.905     -12.949      90.359
  C      -68.814     -10.744      91.072
  O      -69.072     -12.094      91.430
  C      -68.838      -9.828      92.295
  O      -70.204      -9.709      92.781
  C      -67.964     -10.310      93.462
  O      -67.372      -9.149      94.059
  C      -68.970     -10.940      94.405
  O      -68.489     -11.011      95.743
  C      -70.178     -10.024      94.191
  N      -71.427     -10.638      94.617
  C      -71.587     -10.856      95.990
  O      -70.653     -10.651      96.760
  N      -72.802     -11.310      96.440
  C      -73.702     -11.694      95.583
  N      -74.914     -12.075      96.071
  C      -73.465     -11.717      94.124
  C      -72.335     -11.139      93.712
  O      -71.354     -12.598      90.275
  O      -69.157     -12.621      88.976
  H      -69.797     -12.212      88.360
  H      -69.206     -11.353      96.318
  H      -74.192     -12.159      93.460
  H      -72.086     -11.079      92.657
  H      -70.048      -9.078      94.733
  H      -69.199     -11.961      94.071
  H      -67.173     -10.994      93.142
  H      -68.520      -8.823      91.977
  H      -75.054     -12.007      97.070
  H      -69.585     -10.420      90.368
  H      -75.753     -12.079      95.490
  H      -67.847     -10.669      90.556
  P      -65.900      -9.285      94.696
  C      -63.531      -9.810      93.777
  O      -64.925      -9.848      93.555
  O      -66.076     -10.565      95.649
  O      -65.409      -8.121      95.494
  H      -65.421     -10.520      96.368
  H      -63.023     -10.169      92.880
  H      -63.261     -10.463      94.614
  H      -63.200      -8.787      93.983
  H      -69.590     -16.134      91.830
  H      -70.909     -15.017      92.084
  H      -69.300     -14.607      92.627

 3  4  5  6  7  8  9  10  11  12  13  24  27  28  29  30  32 0
 6-311+G(2d,p)
 ****
 34  35 0
 6-311+G(2d,p)
 ****
 1  2  14  15  16  17  18  19  20  21  22  23  25  26 0
 3-21G
 ****
 31  33  36  37  38  39  40  41  42  43  44  45  46 0
 3-21G
 ****


