%nproc=1
%NoSave
%Mem=1900MB
#P OB98/GEN NMR

erre ene a

0 1
  C       57.336     164.992     -88.506
  O       58.046     165.006     -87.283
  H       57.615     165.857     -89.115
  H       57.594     164.080     -89.051
  H       56.257     164.999     -88.319
  P       57.782     166.258     -86.315
  C       58.370     168.786     -86.388
  O       58.537     167.508     -86.985
  C       59.261     169.810     -87.084
  O       59.015     169.802     -88.507
  C       59.043     171.254     -86.638
  O       59.702     171.533     -85.412
  C       59.679     172.007     -87.797
  O       61.111     172.007     -87.648
  C       59.276     171.141     -89.001
  N       57.536     174.296     -92.636
  C       58.789     173.984     -92.239
  N       59.172     173.117     -91.276
  C       58.103     172.532     -90.712
  C       56.769     172.730     -91.027
  C       56.492     173.669     -92.036
  N       55.202     174.033     -92.390
  N       55.956     171.960     -90.219
  C       56.785     171.321     -89.420
  N       58.093     171.627     -89.688
  O       58.681     165.912     -85.032
  O       56.354     166.486     -85.945
  H       61.324     172.680     -86.974
  H       58.119     165.502     -84.349
  H       59.588     174.497     -92.759
  H       56.487     170.634     -88.640
  H       60.081     171.060     -89.741
  H       59.359     173.051     -87.859
  H       57.977     171.502     -86.591
  H       60.307     169.510     -86.928
  H       58.642     168.732     -85.328
  H       55.132     174.983     -92.742
  H       54.489     173.734     -91.733
  H       57.320     169.077     -86.473
  P       59.440     172.964     -84.734
  C       59.425     175.416     -85.558
  O       59.770     174.068     -85.851
  O       60.655     173.091     -83.699
  O       58.126     173.111     -84.045
  H       60.306     173.246     -82.798
  H       59.698     176.041     -86.382
  H       59.947     175.735     -84.680
  H       58.370     175.486     -85.391

 6  7  8  9  10  11  12  13  14  15  25  28  32  33  34  35 0
 6-311+G(2d,p)
 ****
 36  39  40 0
 6-311+G(2d,p)
 ****
 1  2  3  4  5  16  17  18  19  20  21  22  23  24 0
 3-21G
 ****
 26  27  29  30  31  37  38  41  42  43  44  45  46  47  48 0
 3-21G
 ****


