%nproc=1
%NoSave
%Mem=1900MB
#P OB98/GEN NMR

erre ene a

0 1
  C       36.762     206.364     467.353
  O       37.938     206.425     466.540
  P       39.370     206.493     467.254
  C       40.635     208.093     468.834
  O       39.374     207.716     468.299
  C       40.580     209.516     469.406
  O       40.305     210.485     468.347
  C       39.476     209.684     470.464
  O       39.883     210.629     471.467
  C       38.339     210.300     469.675
  O       37.410     210.968     470.527
  C       39.116     211.215     468.728
  N       38.732     214.571     464.876
  C       39.668     214.417     465.845
  N       39.710     213.487     466.822
  C       38.666     212.642     466.731
  C       37.645     212.672     465.794
  C       37.696     213.702     464.834
  N       36.735     213.873     463.862
  N       36.741     211.652     466.016
  C       37.190     211.045     467.101
  N       38.360     211.590     467.545
  O       40.551     206.442     466.341
  O       39.343     205.215     468.225
  H       37.068     210.310     471.163
  H       40.213     204.771     468.193
  H       40.476     215.142     465.839
  H       36.695     210.227     467.606
  H       39.438     212.137     469.222
  H       37.805     209.518     469.126
  H       39.181     208.753     470.961
  H       41.561     209.772     469.823
  H       41.400     208.035     468.053
  H       36.797     214.707     463.294
  H       35.888     213.325     463.909
  H       40.931     207.368     469.599
  P       40.134     210.030     472.942
  C       38.536     209.173     474.831
  O       38.690     209.624     473.501
  O       40.955     210.922     473.816
  O       40.838     208.629     472.610
  H       40.371     208.082     471.955
  H       37.472     209.075     475.046
  H       38.975     209.886     475.532
  H       39.013     208.198     474.949
  H       35.896     206.324     466.725
  H       36.712     207.234     467.974
  H       36.798     205.489     467.968

 3  4  5  6  7  8  9  10  11  12  22  25  29  30  31  32 0
 6-311+G(2d,p)
 ****
 33  36  37 0
 6-311+G(2d,p)
 ****
 1  2  13  14  15  16  17  18  19  20  21  23  24  26 0
 3-21G
 ****
 27  28  34  35  38  39  40  41  42  43  44  45  46  47  48 0
 3-21G
 ****


