%nproc=1
%NoSave
%Mem=1900MB
#P OB98/GEN NMR

erre ene a

0 1
  C      -39.856      99.475     -52.687
  O      -38.651      99.433     -53.436
  P      -37.539     100.546     -53.125
  C      -38.555     102.098     -54.927
  O      -38.168     101.955     -53.566
  C      -37.622     103.054     -55.660
  O      -37.644     104.342     -54.986
  C      -36.158     102.588     -55.717
  O      -35.638     102.823     -57.034
  C      -35.447     103.536     -54.766
  O      -34.066     103.677     -55.085
  C      -36.278     104.803     -54.963
  N      -33.459     108.749     -53.553
  C      -33.531     108.106     -54.774
  N      -32.688     108.546     -55.736
  N      -34.349     107.122     -55.030
  C      -35.155     106.809     -53.985
  C      -35.184     107.375     -52.732
  C      -34.230     108.425     -52.446
  O      -34.055     108.972     -51.359
  N      -36.151     106.801     -51.947
  C      -36.703     105.885     -52.720
  N      -36.099     105.818     -53.951
  O      -36.426     100.259     -54.238
  O      -36.957     100.498     -51.754
  H      -34.018     104.038     -55.990
  H      -35.562     100.104     -53.810
  H      -32.798     109.490     -53.406
  H      -37.512     105.230     -52.422
  H      -36.056     105.260     -55.937
  H      -35.531     103.151     -53.744
  H      -32.058     109.322     -55.618
  H      -36.010     101.539     -55.444
  H      -32.743     108.102     -56.645
  H      -38.015     103.218     -56.672
  H      -39.577     102.489     -54.970
  H      -38.536     101.113     -55.405
  P      -35.038     101.541     -57.791
  C      -32.868     101.809     -56.376
  O      -33.903     100.956     -56.825
  O      -34.214     102.181     -59.004
  O      -36.074     100.569     -58.251
  H      -34.130     101.539     -59.735
  H      -33.057     102.856     -56.627
  H      -31.927     101.501     -56.838
  H      -32.778     101.717     -55.291
  H      -40.498      98.679     -53.000
  H      -40.345     100.413     -52.850
  H      -39.633      99.365     -51.646

 3  4  5  6  7  8  9  10  11  12  23  26  30  31  33  0
 6-311+G(2d,p)
 ****
 35  36  37  38 0
 6-311+G(2d,p)
 ****
 1  2  13  14  15  16  17  18  19  20  21  22  24  25  27  28  29 0
 3-21G
 ****
 32  34  39  40  41  42  43  44  45  46  47  48  49 0
 3-21G
 ****


