%nproc=1
%NoSave
%Mem=1900MB
#P OB98/GEN NMR

erre ene a

0 1
  C     -415.816     -15.252     436.680
  O     -415.145     -14.608     435.618
  P     -415.552     -13.121     435.174
  C     -415.845     -14.016     432.772
  O     -416.442     -13.298     433.851
  C     -416.817     -15.049     432.207
  O     -417.446     -15.795     433.271
  C     -417.955     -14.455     431.390
  O     -417.502     -14.077     430.098
  C     -418.955     -15.600     431.401
  O     -418.643     -16.574     430.394
  C     -418.753     -16.192     432.814
  N     -419.801     -15.782     433.743
  C     -420.926     -16.612     433.799
  O     -421.013     -17.598     433.067
  N     -421.956     -16.271     434.649
  C     -421.870     -15.189     435.356
  N     -422.922     -14.900     436.168
  C     -420.715     -14.277     435.308
  C     -419.726     -14.629     434.485
  O     -414.410     -12.159     435.060
  O     -416.630     -12.694     436.279
  H     -419.354     -17.254     430.441
  H     -416.200     -12.493     437.144
  H     -420.693     -13.377     435.910
  H     -418.841     -14.011     434.381
  H     -418.744     -17.291     432.771
  H     -419.979     -15.259     431.208
  H     -418.380     -13.593     431.914
  H     -416.239     -15.757     431.591
  H     -423.709     -15.539     436.155
  H     -414.952     -14.522     433.147
  H     -422.977     -14.068     436.736
  H     -415.534     -13.309     431.995
  P     -417.433     -12.534     429.701
  C     -418.563     -12.766     427.409
  O     -418.654     -12.223     428.718
  O     -416.099     -12.052     429.228
  O     -417.853     -11.778     431.050
  H     -417.249     -11.023     431.193
  H     -419.560     -12.780     426.969
  H     -418.173     -13.785     427.434
  H     -417.914     -12.137     426.799
  H     -415.403     -16.229     436.822
  H     -416.857     -15.335     436.446
  H     -415.697     -14.680     437.576

 3  4  5  6  7  8  9  10  11  12  13  23  27  28  29  30  32 0
 6-311+G(2d,p)
 ****
 34  35 0
 6-311+G(2d,p)
 ****
 1  2  14  15  16  17  18  19  20  21  22  24  25  26 0
 3-21G
 ****
 31  33  36  37  38  39  40  41  42  43  44  45  46 0
 3-21G
 ****


