%nproc=1
%NoSave
%Mem=1900MB
#P OB98/GEN NMR

erre ene a

0 1
  C     -243.950     182.205    -168.985
  O     -245.064     182.349    -168.130
  H     -244.201     182.631    -169.961
  H     -243.707     181.149    -169.121
  H     -243.084     182.740    -168.584
  P     -244.952     181.796    -166.629
  C     -247.411     182.551    -166.319
  O     -246.475     181.491    -166.209
  C     -248.791     182.085    -165.867
  O     -249.373     181.165    -166.816
  C     -248.811     181.327    -164.544
  O     -248.619     182.153    -163.408
  C     -250.207     180.735    -164.601
  O     -251.176     181.756    -164.306
  C     -250.282     180.299    -166.081
  N     -249.919     178.896    -166.273
  C     -250.918     177.948    -166.014
  O     -252.033     178.301    -165.636
  N     -250.620     176.615    -166.158
  C     -249.421     176.256    -166.506
  N     -249.179     174.922    -166.626
  C     -248.336     177.219    -166.771
  C     -248.649     178.504    -166.640
  O     -244.182     182.648    -165.673
  O     -244.361     180.317    -166.789
  H     -251.103     182.428    -165.009
  H     -244.261     179.933    -165.884
  H     -247.348     176.869    -167.030
  H     -247.901     179.274    -166.810
  H     -251.288     180.465    -166.488
  H     -250.361     179.926    -163.885
  H     -248.085     180.504    -164.553
  H     -249.442     182.968    -165.832
  H     -249.943     174.285    -166.438
  H     -247.431     182.882    -167.362
  H     -248.258     174.550    -166.819
  H     -247.106     183.388    -165.685
  P     -248.061     181.443    -162.077
  C     -246.394     183.374    -161.522
  O     -247.531     182.620    -161.130
  O     -246.734     180.717    -162.584
  O     -249.016     180.502    -161.412
  H     -246.901     179.770    -162.759
  H     -246.182     184.112    -160.777
  H     -246.591     183.856    -162.457
  H     -245.552     182.722    -161.628

 6  7  8  9  10  11  12  13  14  15  16  26  30  31  32  33  35 0
 6-311+G(2d,p)
 ****
 37  38 0
 6-311+G(2d,p)
 ****
 1  2  3  4  5  17  18  19  20  21  22  23  24  25 0
 3-21G
 ****
 27  28  29  34  36  39  40  41  42  43  44  45  46 0
 3-21G
 ****


