%nproc=1
%NoSave
%Mem=1900MB
#P OB98/GEN NMR

erre ene a

0 1
  C      174.545     -69.015    -185.072
  O      174.864     -67.995    -184.145
  H      174.451     -68.568    -186.066
  H      173.598     -69.496    -184.815
  H      175.345     -69.760    -185.096
  P      174.781     -68.343    -182.581
  C      172.723     -66.972    -181.842
  O      174.144     -67.037    -181.889
  C      172.241     -65.556    -181.528
  O      172.746     -65.119    -180.247
  C      172.720     -64.503    -182.516
  O      172.187     -64.625    -183.814
  C      172.493     -63.218    -181.735
  O      171.142     -62.763    -181.815
  C      172.813     -63.674    -180.289
  N      174.102     -63.183    -179.825
  C      174.229     -61.802    -179.724
  O      173.329     -61.014    -180.024
  N      175.446     -61.343    -179.298
  C      176.537     -62.112    -179.013
  O      177.609     -61.635    -178.653
  C      176.357     -63.564    -179.173
  C      175.168     -64.026    -179.568
  O      176.062     -68.802    -181.950
  O      173.594     -69.412    -182.489
  H      170.575     -63.498    -181.510
  H      173.608     -69.884    -181.619
  H      175.552     -60.344    -179.202
  H      177.203     -64.200    -178.968
  H      175.008     -65.093    -179.689
  H      172.042     -63.308    -179.597
  H      173.129     -62.401    -182.085
  H      173.807     -64.608    -182.625
  H      171.146     -65.576    -181.463
  H      172.382     -67.652    -181.053
  H      172.309     -67.308    -182.802
  P      173.066     -64.928    -185.108
  C      173.338     -62.632    -186.331
  O      172.662     -63.883    -186.254
  O      173.231     -66.364    -185.490
  O      174.519     -64.381    -184.650
  H      175.189     -64.956    -185.070
  H      172.945     -62.064    -187.148
  H      174.383     -62.800    -186.484
  H      173.194     -62.092    -185.419

 6  7  8  9  10  11  12  13  14  15  16  26  31  32  33  34  35 0
 6-311+G(2d,p)
 ****
 36  37 0
 6-311+G(2d,p)
 ****
 1  2  3  4  5  17  18  19  20  21  22  23  24  25 0
 3-21G
 ****
 27  28  29  30  38  39  40  41  42  43  44  45 0
 3-21G
 ****


