%nproc=1
%NoSave
%Mem=1900MB
#P OB98/GEN NMR

erre ene a

0 1
  C     -153.730      81.496     699.952
  O     -154.891      81.881     700.671
  P     -155.659      80.840     701.621
  C     -156.027      82.749     703.309
  O     -156.642      81.745     702.513
  C     -156.999      83.901     703.546
  O     -158.169      83.384     704.214
  C     -156.492      85.040     704.429
  O     -155.713      86.018     703.749
  C     -157.811      85.663     704.868
  O     -158.329      86.494     703.811
  C     -158.700      84.439     705.068
  N     -159.768      85.737     709.898
  C     -159.888      86.415     708.734
  N     -159.568      85.998     707.489
  C     -159.104      84.737     707.515
  C     -158.934      83.921     708.620
  C     -159.289      84.472     709.868
  N     -159.175      83.778     711.054
  N     -158.422      82.690     708.241
  C     -158.307      82.757     706.941
  N     -158.716      83.977     706.442
  O     -154.768      79.914     702.373
  O     -156.666      80.075     700.639
  H     -159.181      86.854     704.126
  H     -156.976      79.250     701.064
  H     -160.295      87.421     708.805
  H     -157.928      81.969     706.310
  H     -159.733      84.612     704.758
  H     -157.698      86.300     705.757
  H     -155.963      84.647     705.306
  H     -157.312      84.284     702.563
  H     -155.147      83.122     702.765
  H     -159.577      84.202     711.877
  H     -158.981      82.781     711.000
  H     -155.685      82.314     704.257
  P     -154.594      86.797     704.611
  C     -152.992      86.964     702.549
  O     -153.732      87.632     703.547
  O     -153.810      85.930     705.532
  O     -155.458      87.928     705.352
  H     -155.841      88.608     704.780
  H     -152.610      87.706     701.828
  H     -153.612      86.250     702.007
  H     -152.133      86.444     703.002
  H     -153.371      82.327     699.382
  H     -153.970      80.688     699.292
  H     -152.973      81.182     700.639

 3  4  5  6  7  8  9  10  11  12  22  25  29  30  31  32 0
 6-311+G(2d,p)
 ****
 33  36  37 0
 6-311+G(2d,p)
 ****
 1  2  13  14  15  16  17  18  19  20  21  23  24  26 0
 3-21G
 ****
 27  28  34  35  38  39  40  41  42  43  44  45  46  47  48 0
 3-21G
 ****


