%nproc=1
%NoSave
%Mem=1900MB
#P OB98/GEN NMR

erre ene a

0 1
  C      453.683    1424.933     618.448
  O      454.936    1425.575     618.480
  H      453.745    1424.085     617.761
  H      452.909    1425.619     618.089
  H      453.403    1424.549     619.433
  P      455.112    1426.726     619.593
  C      455.615    1425.350     621.745
  O      456.136    1426.135     620.693
  C      456.750    1424.580     622.454
  O      457.103    1423.409     621.666
  C      458.024    1425.393     622.635
  O      457.962    1426.211     623.776
  C      459.031    1424.260     622.823
  O      458.922    1423.745     624.179
  C      458.541    1423.228     621.813
  N      461.813    1421.137     618.534
  C      461.443    1420.716     619.811
  N      462.045    1419.615     620.294
  N      460.569    1421.379     620.556
  C      460.054    1422.462     619.958
  C      460.351    1422.971     618.691
  C      461.305    1422.257     617.883
  O      461.649    1422.547     616.762
  N      459.626    1424.104     618.436
  C      458.911    1424.305     619.543
  N      459.159    1423.339     620.493
  O      453.704    1426.726     620.362
  O      455.437    1428.083     619.073
  H      459.041    1424.501     624.780
  H      453.478    1427.635     620.620
  H      462.486    1420.619     618.019
  H      458.218    1425.111     619.684
  H      458.697    1422.192     622.149
  H      460.065    1424.582     622.712
  H      462.769    1419.101     619.770
  H      458.288    1425.948     621.709
  H      461.777    1419.286     621.219
  H      456.360    1424.234     623.424
  H      454.891    1424.640     621.340
  H      455.088    1426.007     622.463
  P      458.838    1427.592     623.742
  C      456.530    1428.809     623.758
  O      457.853    1428.731     624.317
  O      458.936    1427.911     622.182
  O      460.163    1427.492     624.398
  H      459.724    1428.475     622.017
  H      455.990    1429.604     624.229
  H      456.018    1427.884     623.922
  H      456.597    1428.998     622.707

 6  7  8  9  10  11  12  13  14  15  26  29  33  34 0
 6-311+G(2d,p)
 ****
 36  38  39  40  41 0
 6-311+G(2d,p)
 ****
 1  2  3  4  5  16  17  18  19  20  21  22  23  24  25 0
 3-21G
 ****
 27  28  30  31  32  35  37  42  43  44  45  46  47 0
 3-21G
 ****
 48  49 0
 3-21G
 ****


