%nproc=1
%NoSave
%Mem=1900MB
#P OB98/GEN NMR

erre ene a

0 1
  C     -226.464     153.045     -14.094
  O     -227.703     152.812     -14.733
  H     -226.246     152.201     -13.433
  H     -226.519     153.954     -13.488
  H     -225.656     153.134     -14.827
  P     -228.176     153.811     -15.894
  C     -229.453     153.229     -18.066
  O     -229.398     153.104     -16.650
  C     -230.130     152.000     -18.690
  O     -229.241     150.847     -18.534
  C     -231.485     151.623     -18.046
  O     -232.283     151.017     -19.078
  C     -231.038     150.600     -17.015
  O     -232.112     149.891     -16.458
  C     -230.020     149.824     -17.859
  N     -229.140     148.926     -17.114
  C     -229.094     147.595     -17.521
  O     -229.731     147.118     -18.459
  N     -228.262     146.782     -16.784
  C     -227.485     147.168     -15.728
  O     -226.736     146.399     -15.128
  C     -227.586     148.584     -15.346
  C     -228.393     149.382     -16.048
  O     -227.095     154.327     -16.790
  O     -228.896     155.003     -15.097
  H     -228.294     155.769     -15.042
  H     -232.766     150.527     -16.093
  H     -228.208     145.815     -17.064
  H     -226.995     148.923     -14.502
  H     -228.480     150.440     -15.796
  H     -230.540     149.254     -18.637
  H     -230.544     151.109     -16.179
  H     -232.018     152.486     -17.632
  H     -230.242     152.171     -19.774
  H     -228.426     153.311     -18.439
  H     -230.005     154.132     -18.325
  P     -233.405     151.807     -19.911
  C     -234.768     151.420     -22.079
  O     -233.941     150.837     -21.071
  O     -232.961     153.150     -20.409
  O     -234.657     151.945     -18.918
  H     -235.180     152.729     -19.162
  H     -235.053     150.668     -22.785
  H     -234.226     152.194     -22.581
  H     -235.644     151.835     -21.626

 6  7  8  9  10  11  12  13  14  15  16  27  31  32  33  34  35 0
 6-311+G(2d,p)
 ****
 36  37 0
 6-311+G(2d,p)
 ****
 1  2  3  4  5  17  18  19  20  21  22  23  24  25 0
 3-21G
 ****
 26  28  29  30  38  39  40  41  42  43  44  45 0
 3-21G
 ****


