%nproc=1
%NoSave
%Mem=1900MB
#P OB98/GEN NMR

erre ene a

0 1
  C      -83.675     -75.877       8.708
  O      -82.943     -76.973       9.216
  H      -84.702     -76.197       8.516
  H      -83.230     -75.550       7.765
  H      -83.689     -75.050       9.422
  P      -81.545     -76.654       9.933
  C      -82.333     -76.035      12.328
  O      -81.853     -75.567      11.076
  C      -81.432     -75.545      13.461
  O      -81.410     -74.085      13.439
  C      -81.889     -75.984      14.862
  O      -80.731     -76.253      15.663
  C      -82.559     -74.734      15.403
  O      -82.592     -74.710      16.825
  C      -81.681     -73.652      14.784
  N      -80.917     -68.812      15.866
  C      -80.023     -69.855      15.741
  N      -78.726     -69.588      16.005
  N      -80.371     -71.066      15.393
  C      -81.696     -71.192      15.140
  C      -82.682     -70.242      15.230
  C      -82.288     -68.908      15.635
  O      -83.036     -67.949      15.784
  N      -83.913     -70.783      14.952
  C      -83.669     -72.061      14.714
  N      -82.339     -72.357      14.818
  O      -80.763     -75.815       8.816
  O      -80.768     -77.846      10.380
  H      -83.050     -75.518      17.135
  H      -80.189     -76.409       8.298
  H      -80.600     -67.902      16.154
  H      -84.415     -72.808      14.486
  H      -80.724     -73.536      15.308
  H      -83.588     -74.669      15.031
  H      -78.377     -68.675      16.249
  H      -82.549     -76.857      14.861
  H      -78.053     -70.335      15.878
  H      -80.407     -75.882      13.265
  H      -82.338     -77.130      12.325
  H      -83.358     -75.680      12.476
  P      -80.425     -77.776      16.057
  C      -79.592     -78.570      13.723
  O      -80.573     -78.685      14.744
  O      -81.703     -78.186      16.932
  O      -79.157     -77.960      16.822
  H      -81.436     -78.808      17.634
  H      -79.832     -79.237      12.921
  H      -78.631     -78.822      14.121
  H      -79.574     -77.565      13.357

 6  7  8  9  10  11  12  13  14  15  26  29  33  34 0
 6-311+G(2d,p)
 ****
 36  38  39  40  41 0
 6-311+G(2d,p)
 ****
 1  2  3  4  5  16  17  18  19  20  21  22  23  24  25 0
 3-21G
 ****
 27  28  30  31  32  35  37  42  43  44  45  46  47 0
 3-21G
 ****
 48  49 0
 3-21G
 ****


