%nproc=1
%NoSave
%Mem=1900MB
#P OB98/GEN NMR

erre ene a

0 1
  C      457.614    -166.054    -400.573
  O      456.748    -165.076    -401.173
  P      456.096    -165.438    -402.591
  C      456.874    -165.466    -405.074
  O      457.261    -165.424    -403.704
  C      457.980    -164.913    -405.992
  O      458.192    -163.491    -405.734
  C      459.333    -165.597    -405.810
  O      460.043    -165.570    -407.059
  C      460.043    -164.690    -404.820
  O      461.459    -164.890    -404.834
  C      459.566    -163.324    -405.334
  N      462.621    -159.771    -403.434
  C      462.843    -160.691    -404.444
  N      464.046    -160.628    -405.070
  N      461.960    -161.589    -404.819
  C      460.795    -161.507    -404.129
  C      460.466    -160.654    -403.102
  C      461.461    -159.686    -402.689
  O      461.321    -158.862    -401.781
  N      459.186    -160.899    -402.636
  C      458.753    -161.905    -403.377
  N      459.680    -162.279    -404.329
  O      455.231    -164.124    -402.940
  O      455.234    -166.655    -402.576
  H      461.754    -164.810    -405.780
  H      454.284    -164.321    -402.852
  H      463.344    -159.115    -403.181
  H      457.798    -162.385    -403.282
  H      460.140    -162.991    -406.203
  H      459.681    -164.873    -403.801
  H      464.742    -159.924    -404.865
  H      459.270    -166.645    -405.446
  H      464.204    -161.263    -405.841
  H      457.655    -165.011    -407.029
  H      455.954    -164.883    -405.223
  H      456.617    -166.498    -405.343
  P      460.758    -166.926    -407.526
  C      463.009    -168.062    -406.899
  O      462.239    -166.863    -406.927
  O      460.976    -166.712    -409.097
  O      459.981    -168.173    -407.226
  H      461.028    -167.572    -409.550
  H      463.744    -168.041    -407.703
  H      462.376    -168.949    -407.013
  H      463.532    -168.122    -405.947
  H      457.976    -165.683    -399.637
  H      458.441    -166.246    -401.224
  H      457.070    -166.961    -400.411

 3  4  5  6  7  8  9  10  11  12  23  26  30  31 0
 6-311+G(2d,p)
 ****
 33  35  36  37  38 0
 6-311+G(2d,p)
 ****
 1  2  13  14  15  16  17  18  19  20  21  22  24  25 0
 3-21G
 ****
 27  28  29  32  34  39  40  41  42  43  44  45  46  47  48  49 0
 3-21G
 ****


