%nproc=1
%NoSave
%Mem=1900MB
#P OB98/GEN NMR

erre ene a

0 1
  C      -27.949    -108.607      46.866
  O      -28.039    -107.374      47.580
  P      -29.075    -107.262      48.798
  C      -27.437    -108.117      50.594
  O      -28.239    -107.028      50.147
  C      -27.676    -108.394      52.078
  O      -27.013    -109.598      52.510
  C      -27.148    -107.296      52.986
  O      -27.983    -106.152      52.940
  C      -27.101    -108.012      54.326
  O      -28.393    -108.018      54.954
  C      -26.708    -109.448      53.914
  N      -25.316    -109.767      54.194
  C      -25.083    -110.544      55.334
  O      -26.019    -110.884      56.056
  N      -23.791    -110.901      55.633
  C      -22.820    -110.508      54.867
  N      -21.562    -110.894      55.210
  C      -23.023    -109.679      53.664
  C      -24.283    -109.342      53.395
  O      -30.110    -108.335      48.868
  O      -29.750    -105.824      48.557
  H      -28.303    -108.577      55.752
  H      -30.664    -105.844      48.903
  H      -22.182    -109.383      53.054
  H      -24.522    -108.730      52.531
  H      -27.331    -110.180      54.445
  H      -26.407    -107.530      55.022
  H      -26.130    -107.020      52.679
  H      -28.758    -108.516      52.233
  H      -21.448    -111.452      56.047
  H      -26.382    -107.888      50.422
  H      -20.747    -110.683      54.651
  H      -27.670    -108.999      49.986
  P      -27.280    -104.721      52.780
  C      -27.293    -104.463      50.200
  O      -27.837    -104.049      51.438
  O      -25.770    -105.104      52.402
  O      -27.329    -103.859      54.000
  H      -25.161    -104.445      52.781
  H      -27.975    -104.161      49.401
  H      -27.166    -105.547      50.163
  H      -26.328    -103.975      50.043
  H      -27.218    -108.517      46.090
  H      -28.900    -108.840      46.434
  H      -27.662    -109.388      47.538

 3  4  5  6  7  8  9  10  11  12  13  23  27  28  29  30  32 0
 6-311+G(2d,p)
 ****
 34  35 0
 6-311+G(2d,p)
 ****
 1  2  14  15  16  17  18  19  20  21  22  24  25  26 0
 3-21G
 ****
 31  33  36  37  38  39  40  41  42  43  44  45  46 0
 3-21G
 ****


