%nproc=1
%NoSave
%Mem=1900MB
#P OB98/GEN NMR

erre ene a

0 1
  C      359.977     758.158      34.558
  O      360.709     757.594      35.631
  P      361.362     758.518      36.754
  C      359.055     759.270      37.771
  O      360.291     759.624      37.184
  C      359.078     759.649      39.256
  O      359.338     761.062      39.405
  C      357.759     759.328      39.937
  O      357.802     758.056      40.562
  C      357.609     760.474      40.925
  O      358.378     760.222      42.116
  C      358.220     761.652      40.132
  N      357.367     762.354      39.149
  C      356.909     763.634      39.432
  O      357.189     764.256      40.449
  N      356.070     764.190      38.494
  C      355.703     763.608      37.319
  O      354.780     764.002      36.611
  C      356.429     762.388      36.956
  C      357.193     761.813      37.884
  O      362.453     759.362      35.938
  O      361.963     757.796      37.922
  H      358.163     759.317      42.408
  H      363.339     758.973      36.055
  H      355.622     765.063      38.753
  H      356.275     761.963      35.971
  H      357.715     760.885      37.659
  H      358.630     762.415      40.803
  H      356.570     760.588      41.249
  H      356.932     759.382      39.219
  H      359.900     759.106      39.744
  H      358.879     758.198      37.655
  H      358.235     759.788      37.261
  P      356.975     756.839      39.937
  C      359.089     756.178      38.655
  O      357.714     756.484      38.551
  O      355.505     757.041      39.850
  O      357.341     755.616      40.906
  H      356.632     755.495      41.576
  H      359.424     755.782      37.683
  H      359.268     755.425      39.418
  H      359.659     757.090      38.869
  H      359.624     757.377      33.918
  H      360.611     758.816      34.001
  H      359.144     758.707      34.944

 3  4  5  6  7  8  9  10  11  12  13  23  28  29  30  31  32 0
 6-311+G(2d,p)
 ****
 33  34 0
 6-311+G(2d,p)
 ****
 1  2  14  15  16  17  18  19  20  21  22  24  25  26  27 0
 3-21G
 ****
 35  36  37  38  39  40  41  42  43  44  45 0
 3-21G
 ****


