%nproc=1
%NoSave
%Mem=1900MB
#P OB98/GEN NMR

erre ene a

0 1
  C      443.944     660.703    -155.046
  O      445.357     660.926    -155.023
  P      446.278     659.631    -155.248
  C      447.150     660.766    -157.417
  O      446.695     659.571    -156.799
  C      448.259     660.461    -158.436
  O      449.552     660.298    -157.805
  C      447.999     659.187    -159.229
  O      447.080     659.432    -160.268
  C      449.412     658.863    -159.743
  O      449.706     659.602    -160.945
  C      450.303     659.337    -158.576
  N      453.700     655.610    -158.023
  C      453.412     656.388    -159.128
  N      454.170     656.168    -160.238
  N      452.478     657.313    -159.140
  C      451.822     657.417    -157.976
  C      452.040     656.732    -156.794
  C      453.061     655.708    -156.788
  O      453.369     655.013    -155.828
  N      451.208     657.176    -155.799
  C      450.406     658.044    -156.404
  N      450.786     658.279    -157.694
  O      445.251     658.409    -155.068
  O      447.423     659.544    -154.278
  H      450.664     659.521    -161.148
  H      445.465     657.938    -154.231
  H      454.425     654.904    -158.058
  H      449.572     658.553    -155.936
  H      451.200     659.850    -158.952
  H      449.508     657.799    -159.995
  H      454.900     655.472    -160.280
  H      447.654     658.389    -158.556
  H      453.970     656.735    -161.051
  H      448.319     661.323    -159.119
  H      447.524     661.450    -156.666
  H      446.294     661.264    -157.898
  P      445.731     658.562    -160.301
  C      444.545     660.878    -160.326
  O      444.526     659.540    -159.892
  O      445.894     657.586    -159.041
  O      445.515     657.793    -161.565
  H      445.626     656.689    -159.287
  H      443.531     661.235    -160.434
  H      445.071     660.993    -161.279
  H      445.053     661.494    -159.562
  H      443.434     661.630    -154.886
  H      443.679     660.013    -154.273
  H      443.662     660.300    -155.996

 3  4  5  6  7  8  9  10  11  12  23  26  30  31 0
 6-311+G(2d,p)
 ****
 33  35  36  37  38 0
 6-311+G(2d,p)
 ****
 1  2  13  14  15  16  17  18  19  20  21  22  24  25 0
 3-21G
 ****
 27  28  29  32  34  39  40  41  42  43  44  45  46  47  48  49 0
 3-21G
 ****


