%nproc=1
%NoSave
%Mem=1900MB
#P OB98/GEN NMR

erre ene a

0 1
  C      592.033    -573.058      67.309
  O      591.084    -573.401      68.306
  H      591.646    -573.349      66.335
  H      592.957    -573.613      67.503
  H      592.238    -571.985      67.315
  P      591.252    -572.730      69.745
  C      589.472    -571.847      71.428
  O      589.823    -572.848      70.479
  C      587.954    -571.669      71.481
  O      587.489    -571.174      70.191
  C      587.189    -572.964      71.780
  O      586.060    -572.656      72.613
  C      586.673    -573.384      70.423
  O      585.529    -574.232      70.508
  C      586.396    -572.019      69.800
  N      583.028    -572.068      66.069
  C      582.885    -571.777      67.405
  N      581.631    -571.497      67.847
  N      583.881    -571.741      68.255
  C      585.080    -572.015      67.691
  C      585.359    -572.336      66.386
  C      584.248    -572.378      65.454
  O      584.307    -572.666      64.256
  N      586.692    -572.605      66.214
  C      587.221    -572.472      67.429
  N      586.267    -572.120      68.347
  O      591.371    -571.166      69.402
  O      592.420    -573.211      70.545
  H      585.360    -574.594      69.620
  H      592.310    -570.911      69.340
  H      582.223    -572.097      65.463
  H      588.245    -572.641      67.686
  H      585.460    -571.571      70.168
  H      587.451    -573.914      69.875
  H      580.818    -571.469      67.252
  H      587.792    -573.742      72.270
  H      581.514    -571.236      68.806
  H      587.721    -570.906      72.222
  H      589.930    -570.891      71.116
  H      589.865    -572.124      72.412
  P      586.068    -573.163      74.138
  C      585.200    -572.116      76.355
  O      584.974    -572.344      74.964
  O      587.468    -572.610      74.698
  O      585.994    -574.650      74.278
  H      587.836    -573.231      75.340
  H      584.383    -571.558      76.762
  H      586.108    -571.565      76.483
  H      585.278    -573.055      76.862

 6  7  8  9  10  11  12  13  14  15  26  29  33  34 0
 6-311+G(2d,p)
 ****
 36  38  39  40  41 0
 6-311+G(2d,p)
 ****
 1  2  3  4  5  16  17  18  19  20  21  22  23  24  25 0
 3-21G
 ****
 27  28  30  31  32  35  37  42  43  44  45  46  47 0
 3-21G
 ****
 48  49 0
 3-21G
 ****


