%nproc=1
%NoSave
%Mem=1900MB
#P OB98/GEN NMR

erre ene a

0 1
  C        7.702     853.441     289.152
  O        8.703     852.452     289.012
  H        7.836     854.197     288.371
  H        7.796     853.926     290.127
  H        6.708     852.994     289.052
  P        8.593     851.162     289.953
  C       10.194     852.266     291.718
  O        8.957     851.626     291.442
  C       10.472     852.263     293.224
  O        9.427     852.950     293.932
  C       10.488     850.877     293.830
  O       11.631     850.125     293.476
  C       10.430     851.229     295.315
  O       11.718     851.638     295.808
  C        9.447     852.422     295.302
  N        8.114     852.064     295.758
  C        7.749     852.557     297.019
  O        8.535     853.249     297.666
  N        6.527     852.215     297.539
  C        5.719     851.467     296.841
  N        4.514     851.163     297.399
  C        6.049     850.949     295.493
  C        7.252     851.281     295.024
  O        9.870     850.306     289.527
  O        7.295     850.420     289.867
  H       12.055     852.304     295.185
  H       10.712     850.806     289.575
  H        5.340     850.343     294.945
  H        7.564     850.945     294.046
  H        9.821     853.246     295.944
  H       10.111     850.383     295.935
  H        9.572     850.330     293.586
  H       11.413     852.788     293.396
  H        4.331     851.511     298.335
  H       10.214     853.286     291.322
  H        3.824     850.566     296.971
  H       10.980     851.702     291.197
  P       11.507     848.594     293.028
  C       12.518     847.555     295.158
  O       11.332     847.746     294.388
  O       12.569     848.099     292.114
  O       10.013     848.521     292.410
  H        9.311     848.759     293.027
  H       12.287     846.983     296.032
  H       12.912     848.507     295.448
  H       13.244     847.032     294.571

 6  7  8  9  10  11  12  13  14  15  16  26  30  31  32  33  35 0
 6-311+G(2d,p)
 ****
 37  38 0
 6-311+G(2d,p)
 ****
 1  2  3  4  5  17  18  19  20  21  22  23  24  25 0
 3-21G
 ****
 27  28  29  34  36  39  40  41  42  43  44  45  46 0
 3-21G
 ****


