%nproc=1
%NoSave
%Mem=1900MB
#P OB98/GEN NMR

erre ene a

0 1
  C     -257.473     237.580    -108.709
  O     -258.491     237.726    -107.735
  P     -259.849     236.901    -107.915
  C     -261.376     238.961    -108.365
  O     -260.814     237.764    -108.871
  C     -262.785     239.175    -108.921
  O     -262.733     239.160    -110.387
  C     -263.794     238.101    -108.490
  O     -265.075     238.741    -108.361
  C     -263.809     237.159    -109.686
  O     -264.970     236.344    -109.737
  C     -263.697     238.185    -110.828
  N     -263.303     237.569    -112.099
  C     -263.340     238.377    -113.231
  O     -263.683     239.551    -113.229
  N     -263.017     237.750    -114.417
  C     -262.762     236.412    -114.577
  O     -262.604     235.899    -115.680
  C     -262.735     235.615    -113.344
  C     -263.000     236.219    -112.173
  O     -260.546     237.009    -106.473
  O     -259.665     235.481    -108.341
  H     -265.018     235.856    -108.894
  H     -260.396     236.186    -105.967
  H     -263.027     238.314    -115.249
  H     -262.523     234.557    -113.437
  H     -263.019     235.652    -111.249
  H     -264.652     238.716    -110.957
  H     -262.935     236.512    -109.650
  H     -263.526     237.595    -107.562
  H     -263.136     240.168    -108.623
  H     -260.739     239.801    -108.658
  H     -261.398     238.930    -107.270
  P     -266.083     238.184    -107.239
  C     -267.575     236.873    -108.945
  O     -266.720     236.831    -107.824
  O     -267.279     239.252    -107.356
  O     -265.482     238.104    -105.872
  H     -267.500     239.467    -108.273
  H     -267.274     237.654    -109.650
  H     -268.598     237.058    -108.620
  H     -267.530     235.910    -109.456
  H     -256.637     238.193    -108.446
  H     -257.848     237.880    -109.665
  H     -257.165     236.556    -108.752

 3  4  5  6  7  8  9  10  11  12  13  23  28  29  30  31  32 0
 6-311+G(2d,p)
 ****
 33  34 0
 6-311+G(2d,p)
 ****
 1  2  14  15  16  17  18  19  20  21  22  24  25  26 0
 3-21G
 ****
 27  35  36  37  38  39  40  41  42  43  44  45 0
 3-21G
 ****


