%nproc=1
%NoSave
%Mem=1900MB
#P OB98/GEN NMR

erre ene a

0 1
  C      394.719     -16.528     -33.937
  O      396.065     -16.540     -34.372
  H      394.702     -16.667     -32.852
  H      394.149     -17.335     -34.404
  H      394.257     -15.565     -34.173
  P      396.347     -16.611     -35.952
  C      396.176     -14.057     -36.294
  O      395.602     -15.331     -36.579
  C      396.878     -13.484     -37.528
  O      396.019     -13.585     -38.681
  C      397.216     -12.006     -37.409
  O      398.229     -11.717     -36.470
  C      397.396     -11.594     -38.864
  O      398.710     -11.827     -39.359
  C      396.393     -12.528     -39.586
  N      395.231     -11.800     -40.083
  C      395.414     -11.109     -41.277
  O      396.484     -11.075     -41.884
  N      394.328     -10.413     -41.736
  C      393.126     -10.305     -41.103
  O      392.203      -9.629     -41.546
  C      392.999     -11.038     -39.832
  C      394.044     -11.742     -39.386
  O      395.991     -17.905     -36.619
  O      397.894     -16.228     -36.078
  H      399.330     -11.382     -38.750
  H      398.254     -16.491     -36.959
  H      394.440      -9.915     -42.603
  H      392.059     -10.969     -39.303
  H      393.975     -12.288     -38.449
  H      396.876     -13.012     -40.444
  H      397.183     -10.534     -39.009
  H      396.322     -11.483     -37.053
  H      397.778     -14.082     -37.720
  H      396.910     -14.195     -35.493
  H      395.397     -13.372     -35.945
  P      398.158     -10.493     -35.449
  C      397.899     -11.945     -33.312
  O      397.321     -10.962     -34.159
  O      397.880      -9.145     -36.032
  O      399.668     -10.466     -34.879
  H      399.900      -9.534     -34.706
  H      397.232     -12.155     -32.502
  H      398.827     -11.581     -32.924
  H      398.073     -12.840     -33.872

 6  7  8  9  10  11  12  13  14  15  16  26  31  32  33  34  35 0
 6-311+G(2d,p)
 ****
 36  37 0
 6-311+G(2d,p)
 ****
 1  2  3  4  5  17  18  19  20  21  22  23  24  25 0
 3-21G
 ****
 27  28  29  30  38  39  40  41  42  43  44  45 0
 3-21G
 ****


