%nproc=1
%NoSave
%Mem=1900MB
#P OB98/GEN NMR

erre ene a

0 1
  C        0.709      18.648      50.461
  O        1.295      17.526      49.830
  H        1.498      19.220      50.956
  H       -0.019      18.326      51.210
  H        0.224      19.284      49.717
  P        0.295      16.528      49.069
  C        0.649      15.119      46.941
  O        1.250      15.663      48.110
  C        1.720      14.594      45.984
  O        2.262      15.713      45.240
  C        2.884      13.900      46.696
  O        3.308      12.780      45.921
  C        3.975      14.956      46.705
  O        5.280      14.388      46.783
  C        3.690      15.708      45.407
  N        7.771      18.630      44.498
  C        7.511      17.333      44.230
  N        6.386      16.635      44.493
  C        5.455      17.428      45.053
  C        5.576      18.765      45.388
  C        6.808      19.373      45.093
  N        7.091      20.687      45.386
  N        4.418      19.219      45.988
  C        3.607      18.178      46.000
  N        4.197      17.068      45.461
  O       -0.873      17.169      48.398
  O       -0.067      15.486      50.227
  H        5.467      13.928      45.939
  H        0.725      15.224      50.732
  H        8.312      16.780      43.747
  H        2.598      18.173      46.399
  H        4.144      15.225      44.532
  H        3.842      15.615      47.572
  H        2.624      13.576      47.704
  H        1.245      13.928      45.255
  H        0.051      15.884      46.435
  H        7.995      21.049      45.126
  H        6.380      21.263      45.813
  H       -0.015      14.307      47.251
  P        3.189      11.317      46.565
  C        1.925       9.144      45.985
  O        2.520      10.336      45.485
  O        2.608      11.253      47.937
  O        4.715      10.820      46.572
  H        4.874      10.301      47.384
  H        1.518       8.580      45.172
  H        1.144       9.396      46.671
  H        2.666       8.559      46.488

 6  7  8  9  10  11  12  13  14  15  25  28  32  33  34  35 0
 6-311+G(2d,p)
 ****
 36  39  40 0
 6-311+G(2d,p)
 ****
 1  2  3  4  5  16  17  18  19  20  21  22  23  24 0
 3-21G
 ****
 26  27  29  30  31  37  38  41  42  43  44  45  46  47 0
 3-21G
 ****
 48 0
 3-21G
 ****


