%nproc=1
%NoSave
%Mem=1900MB
#P OB98/GEN NMR

erre ene a

0 1
  C      128.825    -329.954    -232.417
  O      129.875    -329.117    -232.929
  P      130.801    -328.192    -232.000
  C      130.782    -325.820    -230.989
  O      130.091    -326.764    -231.798
  C      129.821    -324.809    -230.349
  O      129.447    -323.782    -231.324
  C      128.510    -325.422    -229.810
  O      128.209    -324.738    -228.598
  C      127.526    -325.075    -230.919
  O      126.168    -325.145    -230.510
  C      128.011    -323.666    -231.264
  N      127.486    -323.112    -232.510
  C      126.862    -321.858    -232.451
  O      126.707    -321.267    -231.389
  N      126.403    -321.300    -233.625
  C      126.544    -321.937    -234.744
  N      126.070    -321.321    -235.867
  C      127.173    -323.261    -234.850
  C      127.621    -323.780    -233.708
  O      132.213    -328.095    -232.473
  O      130.736    -328.859    -230.543
  H      131.614    -328.758    -230.112
  H      126.063    -324.560    -229.730
  H      127.279    -323.749    -235.807
  H      128.123    -324.744    -233.704
  H      127.779    -322.982    -230.437
  H      127.663    -325.775    -231.747
  H      128.591    -326.492    -229.601
  H      130.356    -324.293    -229.548
  H      125.651    -320.402    -235.758
  H      131.498    -325.277    -231.620
  H      126.135    -321.722    -236.793
  H      131.345    -326.356    -230.218
  P      127.752    -325.568    -227.305
  C      125.493    -326.487    -226.383
  O      126.186    -325.894    -227.459
  O      127.735    -324.438    -226.163
  O      128.641    -326.697    -226.895
  H      127.870    -324.855    -225.297
  H      124.533    -325.981    -226.258
  H      126.045    -326.430    -225.444
  H      125.300    -327.545    -226.621
  H      128.354    -330.470    -233.227
  H      128.102    -329.349    -231.910
  H      129.238    -330.665    -231.732

 3  4  5  6  7  8  9  10  11  12  13  24  27  28  29  30  32 0
 6-311+G(2d,p)
 ****
 34  35 0
 6-311+G(2d,p)
 ****
 1  2  14  15  16  17  18  19  20  21  22  23  25  26 0
 3-21G
 ****
 31  33  36  37  38  39  40  41  42  43  44  45  46 0
 3-21G
 ****


