%nproc=1
%NoSave
%Mem=1900MB
#P OB98/GEN NMR

erre ene a

0 1
  C       56.053    -118.680     118.945
  O       54.886    -117.849     119.080
  P       54.128    -117.789     120.496
  C       52.633    -119.483     121.818
  O       53.718    -119.281     120.925
  C       52.418    -120.980     122.056
  O       52.005    -121.632     120.831
  C       53.662    -121.729     122.508
  O       53.951    -121.503     123.876
  C       53.271    -123.173     122.201
  O       52.471    -123.725     123.259
  C       52.439    -123.010     120.913
  N       53.168    -123.414     119.714
  C       53.063    -124.747     119.347
  O       52.444    -125.583     120.004
  N       53.724    -125.105     118.201
  C       54.520    -124.290     117.445
  O       55.103    -124.674     116.441
  C       54.658    -122.910     117.932
  C       53.990    -122.542     119.029
  O       52.708    -117.161     120.087
  O       54.788    -116.962     121.550
  H       52.961    -123.569     124.091
  H       52.336    -116.674     120.848
  H       53.636    -126.063     117.896
  H       55.300    -122.238     117.376
  H       54.084    -121.524     119.400
  H       51.522    -123.608     120.981
  H       54.142    -123.827     122.082
  H       54.517    -121.450     121.877
  H       51.609    -121.097     122.791
  H       51.727    -119.054     121.388
  H       52.849    -118.971     122.762
  P       55.211    -120.558     124.201
  C       57.734    -121.143     124.547
  O       56.501    -121.472     123.946
  O       55.092    -120.435     125.795
  O       55.170    -119.258     123.468
  H       54.743    -121.246     126.200
  H       57.594    -120.683     125.528
  H       58.283    -120.455     123.893
  H       58.322    -122.059     124.669
  H       56.431    -118.605     117.947
  H       55.793    -119.697     119.152
  H       56.803    -118.356     119.636

 3  4  5  6  7  8  9  10  11  12  13  23  28  29  30  31  32 0
 6-311+G(2d,p)
 ****
 33  34 0
 6-311+G(2d,p)
 ****
 1  2  14  15  16  17  18  19  20  21  22  24  25  26 0
 3-21G
 ****
 27  35  36  37  38  39  40  41  42  43  44  45 0
 3-21G
 ****


