%nproc=1
%NoSave
%Mem=1900MB
#P OB98/GEN NMR

erre ene a

0 1
  C      -23.071    -313.723     182.899
  O      -22.512    -312.561     183.488
  P      -23.175    -311.148     183.131
  C      -20.849    -309.979     183.205
  O      -22.189    -310.009     183.671
  C      -20.002    -309.087     184.116
  O      -20.515    -307.736     184.113
  C      -20.009    -309.521     185.575
  O      -19.136    -310.619     185.793
  C      -19.576    -308.246     186.280
  O      -18.143    -308.116     186.268
  C      -20.230    -307.158     185.403
  N      -21.422    -306.588     186.017
  C      -21.211    -305.836     187.170
  O      -20.095    -305.673     187.669
  N      -22.330    -305.311     187.756
  C      -23.617    -305.504     187.344
  O      -24.586    -305.052     187.946
  C      -23.784    -306.330     186.137
  C      -22.695    -306.832     185.545
  O      -24.436    -311.059     184.116
  O      -23.577    -310.995     181.702
  H      -17.789    -308.901     186.725
  H      -25.175    -310.606     183.670
  H      -22.198    -304.742     188.575
  H      -24.790    -306.507     185.783
  H      -22.797    -307.455     184.662
  H      -19.517    -306.346     185.218
  H      -19.890    -308.228     187.327
  H      -21.034    -309.773     185.885
  H      -18.977    -309.065     183.725
  H      -20.828    -309.588     182.182
  H      -20.451    -311.000     183.191
  P      -19.773    -312.088     185.702
  C      -19.226    -312.722     188.178
  O      -18.996    -312.951     186.804
  O      -19.192    -312.580     184.293
  O      -21.266    -312.085     185.789
  H      -18.311    -312.212     184.114
  H      -20.269    -312.456     188.371
  H      -18.577    -311.910     188.521
  H      -18.984    -313.630     188.732
  H      -22.529    -314.585     183.227
  H      -23.010    -313.647     181.833
  H      -24.096    -313.814     183.192

 3  4  5  6  7  8  9  10  11  12  13  23  28  29  30  31  32 0
 6-311+G(2d,p)
 ****
 33  34 0
 6-311+G(2d,p)
 ****
 1  2  14  15  16  17  18  19  20  21  22  24  25  26 0
 3-21G
 ****
 27  35  36  37  38  39  40  41  42  43  44  45 0
 3-21G
 ****


