%nproc=1
%NoSave
%Mem=1900MB
#P OB98/GEN NMR

erre ene a

0 1
  C       77.375      -4.234     127.318
  O       77.570      -5.397     126.542
  H       77.666      -3.364     126.725
  H       78.001      -4.271     128.213
  H       76.325      -4.127     127.602
  P       77.048      -6.801     127.109
  C       75.357      -7.057     125.176
  O       75.547      -6.984     126.580
  C       73.864      -7.018     124.826
  O       73.240      -5.930     125.575
  C       73.571      -6.764     123.333
  O       72.333      -7.422     123.032
  C       73.412      -5.254     123.326
  O       72.869      -4.773     122.123
  C       72.583      -5.084     124.606
  N       72.475      -3.719     125.105
  C       71.214      -3.133     125.115
  O       70.182      -3.686     124.739
  N       71.161      -1.846     125.584
  C       72.216      -1.113     126.043
  O       72.102       0.025     126.480
  C       73.523      -1.784     126.000
  C       73.592      -3.037     125.546
  O       77.233      -7.019     128.573
  O       77.860      -7.881     126.247
  H       78.597      -8.237     126.778
  H       72.773      -3.798     122.183
  H       70.255      -1.406     125.603
  H       74.383      -1.228     126.346
  H       74.541      -3.561     125.511
  H       71.578      -5.491     124.456
  H       74.389      -4.776     123.426
  H       74.355      -7.141     122.673
  H       73.396      -7.949     125.168
  H       75.794      -7.996     124.820
  H       75.876      -6.219     124.699
  P       72.222      -8.693     122.057
  C       71.404     -10.400     123.823
  O       72.449     -10.018     122.936
  O       73.103      -8.612     120.855
  O       70.679      -8.770     121.638
  H       70.598      -9.212     120.772
  H       71.685     -11.293     124.342
  H       70.509     -10.579     123.264
  H       71.232      -9.616     124.530

 6  7  8  9  10  11  12  13  14  15  16  27  31  32  33  34  35 0
 6-311+G(2d,p)
 ****
 36  37 0
 6-311+G(2d,p)
 ****
 1  2  3  4  5  17  18  19  20  21  22  23  24  25 0
 3-21G
 ****
 26  28  29  30  38  39  40  41  42  43  44  45 0
 3-21G
 ****


