%nproc=1
%NoSave
%Mem=1900MB
#P OB98/GEN NMR

erre ene a

0 1
  C       34.668     327.057     465.457
  O       34.393     326.889     464.076
  H       33.799     326.725     466.030
  H       34.858     328.109     465.691
  H       35.528     326.451     465.741
  P       35.394     327.562     463.021
  C       33.918     329.667     462.784
  O       34.477     328.534     462.124
  C       33.006     330.464     461.851
  O       32.450     331.607     462.537
  C       33.714     331.040     460.633
  O       34.182     330.084     459.710
  C       32.730     332.098     460.167
  O       31.678     331.554     459.375
  C       32.159     332.606     461.524
  N       32.683     333.912     461.888
  C       32.443     334.938     460.985
  O       31.852     334.779     459.912
  N       32.944     336.168     461.321
  C       33.681     336.451     462.439
  O       34.117     337.573     462.679
  C       33.937     335.323     463.344
  C       33.428     334.119     463.036
  O       36.227     326.605     462.218
  O       36.254     328.584     463.898
  H       32.081     331.199     458.562
  H       37.065     328.880     463.416
  H       32.770     336.929     460.681
  H       34.524     335.507     464.232
  H       33.597     333.268     463.689
  H       31.062     332.674     461.475
  H       33.210     332.883     459.579
  H       34.613     331.579     460.981
  H       32.170     329.815     461.553
  H       34.751     330.308     463.112
  H       33.365     329.333     463.668
  P       35.716     329.926     459.292
  C       35.221     331.281     457.108
  O       35.833     330.147     457.703
  O       36.467     328.792     459.902
  O       36.352     331.298     459.869
  H       37.266     331.093     460.160
  H       35.398     331.269     456.053
  H       35.636     332.173     457.529
  H       34.168     331.256     457.294

 6  7  8  9  10  11  12  13  14  15  16  26  31  32  33  34  35 0
 6-311+G(2d,p)
 ****
 36  37 0
 6-311+G(2d,p)
 ****
 1  2  3  4  5  17  18  19  20  21  22  23  24  25 0
 3-21G
 ****
 27  28  29  30  38  39  40  41  42  43  44  45 0
 3-21G
 ****


