%nproc=1
%NoSave
%Mem=1900MB
#P OB98/GEN NMR

erre ene a

0 1
  C       34.297      43.996     -14.920
  O       34.977      44.107     -16.163
  P       35.535      42.767     -16.845
  C       37.918      42.981     -15.844
  O       36.719      42.222     -15.905
  C       39.143      42.073     -15.763
  O       39.088      41.312     -14.526
  C       39.264      41.065     -16.910
  O       40.661      40.871     -17.160
  C       38.687      39.795     -16.313
  O       39.117      38.628     -17.007
  C       39.191      39.915     -14.878
  N       38.488      35.216     -12.993
  C       39.372      35.700     -13.890
  N       39.498      36.965     -14.341
  C       38.583      37.766     -13.769
  C       37.597      37.407     -12.866
  C       37.568      36.060     -12.469
  N       36.676      35.565     -11.547
  N       36.830      38.502     -12.527
  C       37.342      39.503     -13.212
  N       38.417      39.111     -13.957
  O       36.306      43.324     -18.132
  O       34.500      41.765     -17.222
  H       38.577      37.874     -16.702
  H       35.831      43.059     -18.945
  H       40.077      34.978     -14.294
  H       36.973      40.518     -13.205
  H       40.244      39.620     -14.783
  H       37.593      39.830     -16.356
  H       38.753      41.369     -17.829
  H       40.038      42.705     -15.712
  H       37.889      43.610     -14.949
  H       36.806      34.624     -11.213
  H       36.115      36.219     -11.012
  H       37.985      43.631     -16.722
  P       41.086      40.489     -18.658
  C       40.590      37.970     -18.291
  O       40.305      39.143     -19.029
  O       42.608      40.017     -18.502
  O       40.955      41.612     -19.634
  H       43.093      40.175     -19.332
  H       39.678      37.372     -18.212
  H       40.952      38.200     -17.284
  H       41.351      37.390     -18.820
  H       33.987      44.967     -14.595
  H       34.954      43.569     -14.191
  H       33.438      43.369     -15.038

 3  4  5  6  7  8  9  10  11  12  22  25  29  30  31  32 0
 6-311+G(2d,p)
 ****
 33  36  37 0
 6-311+G(2d,p)
 ****
 1  2  13  14  15  16  17  18  19  20  21  23  24  26 0
 3-21G
 ****
 27  28  34  35  38  39  40  41  42  43  44  45  46  47  48 0
 3-21G
 ****


