%nproc=1
%NoSave
%Mem=1900MB
#P OB98/GEN NMR

erre ene a

0 1
  C      410.429     275.273    -102.194
  O      409.190     275.054    -102.837
  H      411.046     275.957    -102.781
  H      410.243     275.724    -101.213
  H      410.957     274.324    -102.049
  P      409.239     274.382    -104.295
  C      408.303     276.553    -105.374
  O      409.360     275.604    -105.331
  C      408.765     277.797    -106.128
  O      409.659     278.578    -105.303
  C      409.530     277.507    -107.410
  O      408.669     277.213    -108.497
  C      410.245     278.833    -107.616
  O      409.322     279.802    -108.145
  C      410.642     279.202    -106.181
  N      415.637     280.296    -106.335
  C      414.555     280.943    -106.813
  N      413.257     280.585    -106.738
  C      413.128     279.421    -106.078
  C      414.134     278.643    -105.538
  C      415.452     279.125    -105.679
  N      416.558     278.456    -105.200
  N      413.616     277.494    -104.968
  C      412.310     277.601    -105.133
  N      411.968     278.744    -105.809
  O      407.741     273.860    -104.519
  O      410.258     273.305    -104.479
  H      408.489     279.695    -107.652
  H      407.732     273.169    -105.209
  H      414.764     281.877    -107.338
  H      411.581     276.884    -104.786
  H      410.605     280.279    -105.996
  H      411.078     278.765    -108.319
  H      410.278     276.716    -107.264
  H      407.878     278.417    -106.332
  H      408.028     276.829    -104.353
  H      417.455     278.791    -105.516
  H      416.432     277.518    -104.845
  H      407.432     276.105    -105.869
  P      409.306     276.455    -109.763
  C      408.746     278.310    -111.502
  O      409.756     277.610    -110.782
  O      408.034     275.803    -110.475
  O      410.354     275.444    -109.421
  H      408.289     275.008    -110.981
  H      409.202     279.043    -112.135
  H      408.087     278.795    -110.812
  H      408.190     277.618    -112.100

 6  7  8  9  10  11  12  13  14  15  25  28  32  33  34  35 0
 6-311+G(2d,p)
 ****
 36  39  40 0
 6-311+G(2d,p)
 ****
 1  2  3  4  5  16  17  18  19  20  21  22  23  24 0
 3-21G
 ****
 26  27  29  30  31  37  38  41  42  43  44  45  46  47 0
 3-21G
 ****
 48 0
 3-21G
 ****


