%nproc=1
%NoSave
%Mem=1900MB
#P OB98/GEN NMR

erre ene a

0 1
  C      245.228    -409.010    -125.672
  O      244.497    -408.234    -124.742
  P      244.165    -408.911    -123.322
  C      242.500    -410.740    -122.519
  O      242.946    -409.916    -123.591
  C      241.195    -411.439    -122.891
  O      240.109    -410.494    -122.878
  C      241.200    -412.044    -124.283
  O      241.916    -413.266    -124.296
  C      239.705    -412.211    -124.543
  O      239.218    -413.452    -124.014
  C      239.098    -411.010    -123.776
  N      238.591    -409.975    -124.659
  C      237.257    -410.117    -125.065
  O      236.595    -411.084    -124.682
  N      236.722    -409.184    -125.912
  C      237.460    -408.197    -126.332
  N      236.872    -407.298    -127.172
  C      238.874    -408.026    -125.948
  C      239.370    -408.946    -125.125
  O      243.492    -407.713    -122.505
  O      245.343    -409.491    -122.615
  H      238.248    -413.433    -124.132
  H      243.615    -407.837    -121.541
  H      239.444    -407.186    -126.324
  H      240.405    -408.892    -124.795
  H      238.267    -411.348    -123.138
  H      239.467    -412.206    -125.613
  H      241.624    -411.346    -125.011
  H      240.992    -412.213    -122.138
  H      235.905    -407.444    -127.421
  H      242.329    -410.121    -121.636
  H      237.357    -406.484    -127.532
  H      243.283    -411.473    -122.286
  P      243.021    -413.471    -125.442
  C      242.864    -413.539    -127.999
  O      242.175    -413.739    -126.775
  O      243.585    -414.930    -125.104
  O      244.104    -412.448    -125.533
  H      244.350    -415.127    -125.681
  H      242.237    -413.901    -128.818
  H      243.805    -414.096    -128.003
  H      243.055    -412.475    -128.154
  H      245.379    -408.444    -126.568
  H      244.681    -409.901    -125.901
  H      246.176    -409.271    -125.251

 3  4  5  6  7  8  9  10  11  12  13  21  23  27  28  29  30  32 0
 6-311+G(2d,p)
 ****
 34  35 0
 6-311+G(2d,p)
 ****
 1  2  14  15  16  17  18  19  20  22  24  25  26 0
 3-21G
 ****
 31  33  36  37  38  39  40  41  42  43  44  45  46 0
 3-21G
 ****


