%nproc=1
%NoSave
%Mem=1900MB
#P OB98/GEN NMR

erre ene a

0 1
  C     -119.100     -61.647     -91.389
  O     -119.476     -60.286     -91.446
  H     -118.828     -61.978     -92.395
  H     -119.936     -62.254     -91.033
  H     -118.238     -61.777     -90.729
  P     -119.875     -59.590     -90.056
  C     -118.093     -57.787     -90.635
  O     -118.633     -58.657     -89.649
  C     -117.511     -56.546     -89.964
  O     -116.933     -55.682     -90.970
  C     -118.536     -55.691     -89.230
  O     -118.860     -56.227     -87.958
  C     -117.812     -54.354     -89.158
  O     -116.899     -54.307     -88.054
  C     -117.035     -54.326     -90.481
  N     -117.936     -49.501     -91.854
  C     -117.206     -50.033     -90.849
  N     -117.001     -51.337     -90.562
  C     -117.636     -52.120     -91.450
  C     -118.420     -51.722     -92.519
  C     -118.561     -50.339     -92.713
  N     -119.332     -49.797     -93.715
  N     -118.941     -52.821     -93.173
  C     -118.472     -53.863     -92.517
  N     -117.675     -53.487     -91.472
  O     -119.795     -60.803     -89.013
  O     -121.208     -58.921     -90.038
  H     -116.365     -55.123     -88.099
  H     -120.682     -61.193     -88.897
  H     -116.728     -49.317     -90.186
  H     -118.686     -54.899     -92.752
  H     -116.012     -53.951     -90.352
  H     -118.513     -53.528     -89.034
  H     -119.439     -55.573     -89.841
  H     -116.709     -56.861     -89.285
  H     -118.888     -57.483     -91.325
  H     -117.320     -58.322     -91.196
  H     -119.407     -48.796     -93.780
  H     -119.887     -50.413     -94.294
  P     -119.977     -55.490     -87.080
  C     -122.030     -56.538     -88.282
  O     -121.299     -55.361     -87.981
  O     -119.435     -53.988     -86.983
  O     -120.207     -56.088     -85.733
  H     -119.001     -53.837     -86.123
  H     -122.877     -56.287     -88.886
  H     -122.363     -56.994     -87.373
  H     -121.402     -57.221     -88.815

 6  7  8  9  10  11  12  13  14  15  25  28  32  33  34  35 0
 6-311+G(2d,p)
 ****
 36  37  40 0
 6-311+G(2d,p)
 ****
 1  2  3  4  5  16  17  18  19  20  21  22  23  24 0
 3-21G
 ****
 26  27  29  30  31  38  39 41  42  43  44  45  46  47  48 0
 3-21G
 ****


