%nproc=1
%NoSave
%Mem=1900MB
#P OB98/GEN NMR

erre ene a

0 1
  C       62.273      82.039       6.938
  O       61.226      82.667       6.233
  H       63.077      82.764       7.087
  H       62.660      81.202       6.351
  H       61.940      81.679       7.914
  P       59.769      82.009       6.273
  C       58.782      79.632       6.084
  O       59.902      80.471       5.831
  C       58.670      78.512       5.050
  O       58.293      79.067       3.771
  C       59.994      77.773       4.838
  O       60.219      76.701       5.737
  C       59.845      77.265       3.406
  O       59.197      75.983       3.371
  C       58.966      78.329       2.741
  N       60.175      79.768      -2.014
  C       59.478      78.649      -1.598
  N       59.092      77.797      -2.571
  N       59.208      78.395      -0.344
  C       59.744      79.286       0.520
  C       60.468      80.420       0.227
  C       60.699      80.734      -1.167
  O       61.295      81.719      -1.588
  N       60.885      81.062       1.368
  C       60.487      80.268       2.343
  N       59.722      79.223       1.882
  O       59.029      82.668       5.011
  O       58.986      82.251       7.527
  H       59.776      75.338       3.822
  H       58.076      82.749       5.197
  H       60.326      79.925      -2.993
  H       60.684      80.427       3.397
  H       58.188      77.872       2.117
  H       60.823      77.135       2.936
  H       59.347      77.899      -3.540
  H       60.835      78.471       4.866
  H       58.747      76.875      -2.295
  H       57.869      77.823       5.348
  H       57.899      80.271       6.041
  H       58.838      79.216       7.094
  P       61.586      76.593       6.559
  C       64.113      76.773       5.873
  O       62.788      76.443       5.520
  O       61.492      75.142       7.226
  O       61.810      77.664       7.575
  H       61.193      75.208       8.152
  H       64.758      76.601       5.037
  H       64.425      76.164       6.696
  H       64.161      77.804       6.154

 6  7  8  9  10  11  12  13  14  15  26  29  33  34 0
 6-311+G(2d,p)
 ****
 36  38  39  40  41 0
 6-311+G(2d,p)
 ****
 1  2  3  4  5  16  17  18  19  20  21  22  23  24  25 0
 3-21G
 ****
 27  28  30  31  32  35  37  42  43  44  45  46  47 0
 3-21G
 ****
 48  49 0
 3-21G
 ****


