%nproc=1
%NoSave
%Mem=1900MB
#P OB98/GEN NMR

erre ene a

0 1
  C     -860.804     367.152    -493.776
  O     -861.187     365.818    -494.044
  H     -860.841     367.716    -494.712
  H     -859.781     367.185    -493.393
  H     -861.486     367.614    -493.059
  P     -861.311     364.792    -492.814
  C     -863.640     363.745    -493.139
  O     -862.872     364.712    -492.440
  C     -864.596     364.426    -494.119
  O     -863.820     365.185    -495.088
  C     -865.478     363.448    -494.896
  O     -866.776     364.025    -495.055
  C     -864.796     363.350    -496.248
  O     -865.707     362.996    -497.290
  C     -864.205     364.750    -496.403
  N     -862.784     364.307    -501.234
  C     -864.049     364.336    -500.670
  N     -865.094     364.200    -501.514
  N     -864.267     364.477    -499.389
  C     -863.135     364.616    -498.660
  C     -861.832     364.600    -499.092
  C     -861.601     364.426    -500.515
  O     -860.505     364.385    -501.063
  N     -860.958     364.736    -498.039
  C     -861.731     364.837    -496.976
  N     -863.060     364.759    -497.300
  O     -860.409     365.069    -491.656
  O     -861.018     363.366    -493.469
  H     -865.234     363.124    -498.137
  H     -860.100     363.084    -493.292
  H     -862.672     364.183    -502.216
  H     -861.384     364.957    -495.965
  H     -864.932     365.466    -496.807
  H     -864.011     362.592    -496.210
  H     -864.999     364.102    -502.509
  H     -865.570     362.472    -494.407
  H     -866.031     364.245    -501.133
  H     -865.208     365.148    -493.562
  H     -864.210     363.166    -492.408
  H     -862.965     363.073    -493.678
  P     -867.667     364.302    -493.748
  C     -868.415     366.753    -494.039
  O     -867.534     365.858    -493.365
  O     -867.470     363.350    -492.618
  O     -869.168     364.220    -494.322
  H     -869.753     363.898    -493.609
  H     -868.233     367.753    -493.703
  H     -869.428     366.484    -493.826
  H     -868.244     366.695    -495.094

 6  7  8  9  10  11  12  13  14  15  26  29  33  34 0
 6-311+G(2d,p)
 ****
 36  38  39  40  41 0
 6-311+G(2d,p)
 ****
 1  2  3  4  5  16  17  18  19  20  21  22  23  24  25 0
 3-21G
 ****
 27  28  30  31  32  35  37  42  43  44  45  46  47 0
 3-21G
 ****
 48  49 0
 3-21G
 ****


