%nproc=1
%NoSave
%Mem=1900MB
#P OB98/GEN NMR

erre ene a

0 1
  C      197.252     407.380     -20.767
  O      196.254     408.377     -20.648
  P      196.579     409.777     -19.948
  C      194.239     410.475     -19.171
  O      195.279     410.711     -20.111
  C      192.866     410.759     -19.777
  O      192.741     412.189     -20.015
  C      192.594     410.048     -21.112
  O      191.196     409.744     -21.137
  C      192.898     411.130     -22.135
  O      192.289     410.887     -23.395
  C      192.370     412.356     -21.398
  N      192.079     415.864     -25.106
  C      191.413     414.707     -24.909
  N      191.565     413.813     -23.909
  C      192.519     414.217     -23.056
  C      193.305     415.356     -23.141
  C      193.042     416.217     -24.222
  N      193.688     417.418     -24.419
  N      194.215     415.391     -22.103
  C      193.982     414.298     -21.407
  N      192.925     413.589     -21.910
  O      197.860     410.418     -20.368
  O      196.585     409.440     -18.385
  H      192.757     411.412     -24.071
  H      197.504     409.432     -18.052
  H      190.654     414.466     -25.649
  H      194.545     413.970     -20.544
  H      191.276     412.431     -21.449
  H      193.982     411.195     -22.289
  H      193.191     409.145     -21.262
  H      192.104     410.489     -19.036
  H      194.401     411.138     -18.315
  H      193.331     418.016     -25.146
  H      194.208     417.827     -23.643
  H      194.288     409.438     -18.816
  P      190.706     408.281     -21.575
  C      190.019     409.371     -23.790
  O      189.636     408.494     -22.747
  O      190.270     407.392     -20.462
  O      191.976     407.680     -22.352
  H      191.889     406.712     -22.418
  H      189.864     410.407     -23.468
  H      189.402     409.173     -24.668
  H      191.071     409.231     -24.052
  H      196.843     406.523     -21.260
  H      197.595     407.101     -19.793
  H      198.072     407.763     -21.338

 3  4  5  6  7  8  9  10  11  12  22  25  29  30  31  32 0
 6-311+G(2d,p)
 ****
 33  36  37 0
 6-311+G(2d,p)
 ****
 1  2  13  14  15  16  17  18  19  20  21  23  24  26 0
 3-21G
 ****
 27  28  34  35  38  39  40  41  42  43  44  45  46  47  48 0
 3-21G
 ****


