%nproc=1
%NoSave
%Mem=1900MB
#P OB98/GEN NMR

erre ene a

0 1
  C      998.865     960.524    -892.960
  O      998.764     961.499    -891.940
  H      997.958     959.916    -892.950
  H      999.729     959.877    -892.770
  H      998.965     960.985    -893.950
  P      999.786     962.743    -891.960
  C      997.874     964.484    -891.800
  O      998.974     963.994    -892.570
  C      996.954     965.371    -892.660
  O      997.687     966.586    -893.040
  C      996.571     964.664    -893.960
  O      995.303     965.084    -894.470
  C      997.669     965.117    -894.930
  O      997.272     965.002    -896.300
  C      997.902     966.544    -894.480
  N     1000.861     968.948    -897.850
  C      999.549     968.504    -898.000
  N      998.974     968.703    -899.190
  N      998.875     967.898    -897.040
  C      999.634     967.719    -895.920
  C     1000.917     968.081    -895.640
  C     1001.643     968.780    -896.680
  O     1002.807     969.186    -896.630
  N     1001.334     967.681    -894.400
  C     1000.291     967.059    -893.890
  N      999.209     967.064    -894.760
  O     1000.794     962.389    -893.140
  O     1000.497     963.006    -890.670
  H      998.017     965.312    -896.840
  H     1001.647     962.833    -892.990
  H     1001.323     969.427    -898.600
  H     1000.238     966.600    -892.900
  H      997.171     967.223    -894.930
  H      998.536     964.474    -894.800
  H      999.500     969.006    -900.000
  H      996.563     963.564    -893.840
  H      998.150     968.143    -899.410
  H      996.084     965.691    -892.070
  H      998.290     965.061    -890.980
  H      997.298     963.649    -891.380
  P      994.426     964.007    -895.250
  C      992.289     963.868    -893.720
  O      993.484     963.263    -894.170
  O      995.496     962.872    -895.680
  O      993.693     964.566    -896.430
  H      995.699     962.939    -896.620
  H      991.808     963.225    -893.013
  H      991.637     964.033    -894.552
  H      992.517     964.804    -893.254

 6  7  8  9  10  11  12  13  14  15  26  29  33  34 0
 6-311+G(2d,p)
 ****
 36  38  39  40  41 0
 6-311+G(2d,p)
 ****
 1  2  3  4  5  16  17  18  19  20  21  22  23  24  25 0
 3-21G
 ****
 27  28  30  31  32  35  37  42  43  44  45  46  47 0
 3-21G
 ****
 48  49 0
 3-21G
 ****


