%nproc=1
%NoSave
%Mem=1900MB
#P OB98/GEN NMR

erre ene a

0 1
  C     -113.869    -310.531    1176.532
  O     -114.502    -309.701    1175.581
  H     -113.689    -311.511    1176.082
  H     -114.510    -310.652    1177.403
  H     -112.916    -310.090    1176.827
  P     -114.964    -308.246    1176.078
  C     -114.323    -307.348    1173.712
  O     -115.319    -307.475    1174.718
  C     -114.887    -307.748    1172.350
  O     -115.958    -306.856    1171.962
  C     -113.876    -307.683    1171.192
  O     -112.997    -308.793    1171.167
  C     -114.829    -307.690    1170.015
  O     -115.369    -309.018    1169.828
  C     -115.934    -306.719    1170.505
  N     -115.681    -305.326    1170.124
  C     -116.781    -304.463    1170.140
  O     -117.897    -304.878    1170.457
  N     -116.599    -303.154    1169.753
  C     -115.424    -302.732    1169.412
  N     -115.315    -301.428    1169.041
  C     -114.221    -303.602    1169.403
  C     -114.420    -304.876    1169.761
  O     -113.583    -307.561    1176.523
  O     -116.034    -308.217    1177.114
  H     -115.942    -308.981    1169.051
  H     -113.730    -306.595    1176.716
  H     -113.258    -303.203    1169.095
  H     -113.588    -305.561    1169.774
  H     -116.921    -307.020    1170.142
  H     -114.369    -307.402    1169.072
  H     -113.325    -306.739    1171.201
  H     -115.321    -308.738    1172.447
  H     -116.173    -300.886    1169.008
  H     -113.479    -308.009    1173.979
  H     -114.475    -301.048    1168.625
  H     -113.963    -306.314    1173.672
  P     -111.420    -308.477    1171.219
  C     -110.920    -310.918    1171.933
  O     -110.650    -309.864    1171.008
  O     -111.147    -308.124    1172.768
  O     -110.980    -307.356    1170.322
  H     -110.458    -307.432    1172.855
  H     -110.340    -311.779    1171.672
  H     -111.960    -311.165    1171.898
  H     -110.662    -310.600    1172.921

 6  7  8  9  10  11  12  13  14  15  16  26  30  31  32  33  35 0
 6-311+G(2d,p)
 ****
 37  38 0
 6-311+G(2d,p)
 ****
 1  2  3  4  5  17  18  19  20  21  22  23  24  25 0
 3-21G
 ****
 27  28  29  34  36  39  40  41  42  43  44  45  46 0
 3-21G
 ****


