%nproc=1
%NoSave
%Mem=1900MB
#P OB98/GEN NMR

erre ene a

0 1
  C      -60.159     131.336     252.800
  O      -61.083     132.360     253.109
  H      -59.302     131.425     253.473
  H      -59.805     131.444     251.771
  H      -60.610     130.350     252.936
  P      -62.504     132.366     252.369
  C      -62.201     134.644     251.197
  O      -62.333     133.238     251.036
  C      -63.202     135.365     250.299
  O      -63.095     134.880     248.942
  C      -64.656     135.150     250.700
  O      -64.997     135.932     251.829
  C      -65.368     135.540     249.416
  O      -65.490     136.966     249.308
  C      -64.407     134.985     248.343
  N      -64.842     133.700     247.799
  C      -65.867     133.739     246.858
  O      -66.421     134.780     246.506
  N      -66.259     132.529     246.352
  C      -65.817     131.307     246.768
  O      -66.267     130.247     246.344
  C      -64.753     131.324     247.780
  C      -64.320     132.500     248.240
  O      -63.674     132.733     253.218
  O      -62.640     130.873     251.802
  H      -64.682     137.343     249.707
  H      -63.272     130.374     252.353
  H      -67.009     132.537     245.680
  H      -64.366     130.375     248.125
  H      -63.541     132.532     248.992
  H      -64.314     135.695     247.511
  H      -66.375     135.128     249.360
  H      -64.839     134.088     250.896
  H      -62.953     136.436     250.296
  H      -61.184     134.936     250.917
  H      -62.368     134.899     252.250
  P      -66.350     135.633     252.627
  C      -67.990     137.601     252.424
  O      -67.547     136.373     251.857
  O      -66.295     135.884     254.097
  O      -66.634     134.086     252.329
  H      -66.638     133.590     253.169
  H      -68.785     138.001     251.831
  H      -67.177     138.297     252.447
  H      -68.340     137.428     253.420

 6  7  8  9  10  11  12  13  14  15  16  26  31  32  33  34  35 0
 6-311+G(2d,p)
 ****
 36  37 0
 6-311+G(2d,p)
 ****
 1  2  3  4  5  17  18  19  20  21  22  23  24  25 0
 3-21G
 ****
 27  28  29  30  38  39  40  41  42  43  44  45 0
 3-21G
 ****


