%nproc=1
%NoSave
%Mem=1900MB
#P OB98/GEN NMR

erre ene a

0 1
  C     -254.409     183.324     398.693
  O     -253.032     182.971     398.521
  P     -252.599     181.437     398.311
  C     -250.914     181.506     400.227
  O     -251.092     181.240     398.843
  C     -249.526     182.080     400.563
  O     -248.554     181.017     400.724
  C     -248.960     183.054     399.525
  O     -248.192     184.014     400.253
  C     -248.063     182.149     398.694
  O     -247.106     182.893     397.931
  C     -247.483     181.238     399.777
  N     -246.969     179.989     399.229
  C     -245.708     179.570     399.650
  O     -245.043     180.282     400.409
  N     -245.206     178.394     399.160
  C     -245.852     177.735     398.262
  N     -245.292     176.580     397.798
  C     -247.169     178.179     397.716
  C     -247.662     179.294     398.253
  O     -252.846     180.900     396.934
  O     -253.483     180.641     399.394
  H     -246.526     183.368     398.556
  H     -253.665     179.746     399.059
  H     -247.667     177.598     396.950
  H     -248.611     179.695     397.932
  H     -246.666     181.736     400.310
  H     -248.674     181.572     397.991
  H     -249.735     183.551     398.931
  H     -249.601     182.583     401.542
  H     -244.381     176.329     398.171
  H     -251.058     180.573     400.789
  H     -245.665     176.051     397.022
  H     -251.686     182.201     400.573
  P     -248.828     185.362     400.836
  C     -246.809     186.725     400.045
  O     -247.610     186.353     401.143
  O     -249.781     185.173     401.972
  O     -249.550     186.044     399.575
  H     -250.191     186.710     399.886
  H     -246.158     187.558     400.331
  H     -247.426     187.039     399.200
  H     -246.188     185.871     399.736
  H     -254.493     184.383     398.817
  H     -254.798     182.831     399.560
  H     -254.965     183.021     397.831

 3  4  5  6  7  8  9  10  11  12  13  23  27  28  29  30  32 0
 6-311+G(2d,p)
 ****
 34  35 0
 6-311+G(2d,p)
 ****
 1  2  14  15  16  17  18  19  20  21  22  24  25  26 0
 3-21G
 ****
 31  33  36  37  38  39  40  41  42  43  44  45  46 0
 3-21G
 ****


