%nproc=1
%NoSave
%Mem=1900MB
#P OB98/GEN NMR

erre ene a

0 1
  C     -432.652    1786.646    -243.115
  O     -432.112    1785.378    -242.915
  P     -431.439    1785.011    -241.479
  C     -432.682    1782.879    -240.681
  O     -432.577    1784.314    -240.601
  C     -434.099    1782.372    -240.411
  O     -434.508    1782.754    -239.053
  C     -435.141    1782.861    -241.358
  O     -436.104    1781.743    -241.563
  C     -435.804    1783.980    -240.602
  O     -437.055    1784.344    -241.128
  C     -435.760    1783.418    -239.170
  N     -435.928    1784.441    -238.136
  C     -436.905    1784.215    -237.168
  O     -437.635    1783.216    -237.264
  N     -437.025    1785.081    -236.114
  C     -436.304    1786.192    -236.179
  N     -436.415    1787.112    -235.103
  C     -435.413    1786.547    -237.283
  C     -435.264    1785.637    -238.210
  O     -430.706    1786.135    -240.823
  O     -430.461    1783.790    -241.832
  H     -437.683    1783.613    -240.983
  H     -429.691    1783.839    -241.227
  H     -434.935    1787.519    -237.311
  H     -434.613    1785.787    -239.083
  H     -436.587    1782.659    -239.066
  H     -435.161    1784.917    -240.650
  H     -434.790    1783.142    -242.347
  H     -434.062    1781.253    -240.402
  H     -437.113    1786.825    -234.363
  H     -431.968    1782.449    -239.958
  H     -435.878    1787.958    -235.025
  H     -432.321    1782.556    -241.647
  P     -435.863    1780.788    -242.809
  C     -435.530    1778.477    -241.699
  O     -434.942    1779.574    -242.366
  O     -434.915    1781.631    -243.758
  O     -437.140    1780.463    -243.603
  H     -435.060    1781.384    -244.694
  H     -434.823    1777.643    -241.686
  H     -436.464    1778.158    -242.206
  H     -435.767    1778.711    -240.681
  H     -433.048    1786.713    -244.107
  H     -431.888    1787.384    -242.986
  H     -433.435    1786.816    -242.406

 3  4  5  6  7  8  9  10  11  12  13  23  27  28  29  30  32 0
 6-311+G(2d,p)
 ****
 34  35 0
 6-311+G(2d,p)
 ****
 1  2  14  15  16  17  18  19  20  21  22  24  25  26 0
 3-21G
 ****
 31  33  36  37  38  39  40  41  42  43  44  45  46 0
 3-21G
 ****


