%nproc=1
%NoSave
%Mem=1900MB
#P OB98/GEN NMR

erre ene a

0 1
  C     -408.125    -891.755    1142.482
  O     -409.122    -891.999    1143.452
  P     -410.565    -891.296    1143.299
  C     -411.888    -893.133    1142.093
  O     -411.687    -892.433    1143.326
  C     -412.428    -894.534    1142.379
  O     -411.425    -895.355    1143.037
  C     -413.647    -894.578    1143.274
  O     -414.811    -894.142    1142.620
  C     -413.653    -896.058    1143.697
  O     -414.243    -896.858    1142.654
  C     -412.129    -896.355    1143.789
  N     -411.703    -896.415    1145.181
  C     -411.360    -897.674    1145.678
  O     -411.516    -898.692    1144.988
  N     -410.852    -897.760    1146.953
  C     -410.773    -896.707    1147.702
  N     -410.231    -896.832    1148.950
  C     -411.284    -895.372    1147.267
  C     -411.692    -895.304    1146.009
  O     -410.689    -890.314    1142.172
  O     -410.770    -890.558    1144.721
  H     -411.033    -889.640    1144.561
  H     -414.191    -897.801    1142.965
  H     -411.260    -894.539    1147.953
  H     -412.056    -894.373    1145.578
  H     -411.930    -897.314    1143.299
  H     -414.231    -896.231    1144.602
  H     -413.472    -893.959    1144.163
  H     -412.649    -895.011    1141.394
  H     -409.886    -897.758    1149.194
  H     -410.945    -893.209    1141.568
  H     -409.859    -896.033    1149.443
  H     -412.601    -892.579    1141.487
  P     -416.044    -893.684    1143.566
  C     -415.526    -891.139    1143.583
  O     -416.426    -892.172    1143.162
  O     -415.381    -893.549    1145.009
  O     -417.176    -894.644    1143.571
  H     -416.019    -893.862    1145.690
  H     -415.738    -890.251    1142.967
  H     -414.484    -891.433    1143.452
  H     -415.722    -890.882    1144.631
  H     -407.238    -892.297    1142.738
  H     -407.907    -890.708    1142.450
  H     -408.475    -892.075    1141.523

 3  4  5  6  7  8  9  10  11  12  13  24  27  28  29  30  32 0
 6-311+G(2d,p)
 ****
 34  35 0
 6-311+G(2d,p)
 ****
 1  2  14  15  16  17  18  19  20  21  22  23  25  26 0
 3-21G
 ****
 31  33  36  37  38  39  40  41  42  43  44  45  46 0
 3-21G
 ****


