%nproc=1
%NoSave
%Mem=1900MB
#P OB98/GEN NMR

erre ene a

0 1
  C      276.579    -890.600     559.157
  O      276.064    -891.550     560.114
  P      275.062    -891.140     561.304
  C      272.698    -891.170     560.212
  O      273.655    -891.870     561.040
  C      271.431    -892.000     560.037
  O      271.665    -893.110     559.123
  C      270.905    -892.680     561.306
  O      270.323    -891.760     562.208
  C      269.938    -893.700     560.710
  O      268.657    -893.120     560.466
  C      270.620    -894.100     559.376
  N      271.174    -895.420     559.384
  C      270.246    -896.490     559.439
  O      269.049    -896.250     559.559
  N      270.706    -897.770     559.366
  C      271.998    -897.990     559.371
  N      272.417    -899.290     559.291
  C      273.011    -896.920     559.460
  C      272.543    -895.660     559.445
  O      274.940    -889.680     561.534
  O      275.635    -891.890     562.606
  H      275.355    -891.390     563.409
  H      268.168    -893.740     559.907
  H      274.061    -897.150     559.471
  H      273.206    -894.810     559.482
  H      269.906    -893.980     558.545
  H      269.781    -894.560     561.396
  H      271.732    -893.210     561.803
  H      270.653    -891.360     559.623
  H      271.690    -900.000     559.221
  H      273.160    -890.990     559.232
  H      273.384    -899.570     559.250
  H      272.489    -890.200     560.666
  P      270.813    -891.820     563.724
  C      273.120    -890.620     563.411
  O      271.813    -890.560     563.948
  O      271.784    -893.070     563.775
  O      269.727    -891.930     564.743
  H      271.658    -893.570     564.588
  H      273.471    -889.610     563.229
  H      273.139    -891.190     562.484
  H      273.791    -891.110     564.134
  H      277.222    -891.103     558.465
  H      277.132    -889.841     559.670
  H      275.765    -890.151     558.626

 3  4  5  6  7  8  9  10  11  12  13  24  27  28  29  30  32 0
 6-311+G(2d,p)
 ****
 34  35 0
 6-311+G(2d,p)
 ****
 1  2  14  15  16  17  18  19  20  21  22  23  25  26 0
 3-21G
 ****
 31  33  36  37  38  39  40  41  42  43  44  45  46 0
 3-21G
 ****


