%nproc=1
%NoSave
%Mem=1900MB
#P OB98/GEN NMR

erre ene a

0 1
  C     1306.063    -608.794     295.808
  O     1305.740    -610.159     295.656
  H     1307.029    -608.615     295.323
  H     1306.161    -608.543     296.867
  H     1305.309    -608.164     295.340
  P     1304.390    -610.723     296.311
  C     1303.074    -610.946     294.112
  O     1303.206    -610.227     295.338
  C     1303.528    -610.103     292.925
  O     1304.930    -609.758     293.085
  C     1303.386    -610.815     291.572
  O     1302.776    -609.929     290.630
  C     1304.822    -611.096     291.151
  O     1304.974    -611.230     289.748
  C     1305.538    -609.893     291.791
  N     1306.978    -610.104     291.867
  C     1307.757    -609.421     290.925
  O     1307.214    -608.684     290.088
  N     1309.104    -609.621     290.909
  C     1309.637    -610.467     291.727
  N     1310.986    -610.640     291.645
  C     1308.859    -611.231     292.727
  C     1307.548    -610.998     292.742
  O     1304.203    -610.383     297.752
  O     1304.427    -612.301     296.042
  H     1304.653    -610.400     289.319
  H     1303.841    -612.751     296.691
  H     1309.354    -611.927     293.388
  H     1306.891    -611.513     293.437
  H     1305.349    -608.970     291.228
  H     1305.161    -612.018     291.623
  H     1302.799    -611.733     291.626
  H     1302.975    -609.159     292.939
  H     1311.485    -610.103     290.943
  H     1302.024    -611.244     293.994
  H     1311.509    -611.292     292.214
  H     1303.697    -611.850     294.176
  P     1301.284    -609.434     290.982
  C     1301.170    -606.848     291.200
  O     1301.411    -608.088     291.845
  O     1300.777    -610.524     292.034
  O     1300.392    -609.346     289.790
  H     1300.079    -611.078     291.614
  H     1301.293    -606.051     291.903
  H     1300.172    -606.834     290.816
  H     1301.864    -606.724     290.395

 6  7  8  9  10  11  12  13  14  15  16  26  30  31  32  33  35 0
 6-311+G(2d,p)
 ****
 37  38 0
 6-311+G(2d,p)
 ****
 1  2  3  4  5  17  18  19  20  21  22  23  24  25 0
 3-21G
 ****
 27  28  29  34  36  39  40  41  42  43  44  45  46 0
 3-21G
 ****


