%nproc=1
%NoSave
%Mem=1900MB
#P OB98/GEN NMR

erre ene a

0 1
  C      171.493       0.325    -185.258
  O      170.394       0.037    -184.421
  P      170.548      -0.551    -182.943
  C      171.697      -2.618    -181.868
  O      171.173      -2.029    -183.054
  C      171.656      -4.155    -181.897
  O      170.286      -4.599    -181.811
  C      172.197      -4.673    -183.234
  O      173.589      -4.821    -183.431
  C      171.370      -5.916    -183.539
  O      172.040      -7.125    -183.177
  C      170.114      -5.727    -182.687
  N      166.584      -7.905    -185.604
  C      167.502      -8.498    -184.759
  N      167.611      -9.842    -184.855
  N      168.255      -7.830    -183.922
  C      168.098      -6.488    -184.012
  C      167.215      -5.786    -184.798
  C      166.362      -6.538    -185.687
  O      165.596      -6.045    -186.511
  N      167.391      -4.431    -184.678
  C      168.409      -4.313    -183.851
  N      168.898      -5.531    -183.450
  O      169.405      -0.326    -182.007
  O      171.800       0.306    -182.390
  H      172.921      -7.118    -183.601
  H      171.656       0.451    -181.435
  H      166.089      -8.466    -186.285
  H      168.847      -3.370    -183.540
  H      169.949      -6.598    -182.041
  H      171.165      -5.989    -184.613
  H      167.155     -10.368    -185.586
  H      171.897      -3.945    -183.998
  H      168.386     -10.289    -184.379
  H      172.162      -4.577    -181.024
  H      171.120      -2.233    -181.026
  H      172.732      -2.292    -181.727
  P      174.401      -4.469    -184.761
  C      174.419      -5.259    -187.196
  O      174.084      -5.591    -185.859
  O      175.930      -4.768    -184.381
  O      174.251      -3.063    -185.238
  H      176.520      -4.268    -184.977
  H      173.894      -5.937    -187.873
  H      175.496      -5.374    -187.342
  H      174.128      -4.231    -187.427
  H      171.139       0.707    -186.193
  H      172.056      -0.569    -185.428
  H      172.117       1.056    -184.788

 3  4  5  6  7  8  9  10  11  12  23  26  30  31 0
 6-311+G(2d,p)
 ****
 33  35  36  37  38 0
 6-311+G(2d,p)
 ****
 1  2  13  14  15  16  17  18  19  20  21  22  24  25 0
 3-21G
 ****
 27  28  29  32  34  39  40  41  42  43  44  45  46  47  48  49 0
 3-21G
 ****


