%nproc=1
%NoSave
%Mem=1900MB
#P OB98/GEN NMR

erre ene a

0 1
  C        1.040      -2.897      67.044
  O        0.148      -3.480      67.968
  H        2.028      -3.341      67.185
  H        1.108      -1.822      67.230
  H        0.720      -3.072      66.013
  P       -1.424      -3.366      67.696
  C       -2.711      -1.652      69.134
  O       -1.877      -1.855      68.000
  C       -1.907      -1.648      70.434
  O       -0.695      -0.884      70.253
  C       -2.668      -1.000      71.594
  O       -3.514      -1.885      72.309
  C       -1.529      -0.498      72.477
  O       -1.103      -1.510      73.405
  C       -0.414      -0.184      71.474
  N        1.818       4.228      72.776
  C        1.832       3.019      73.446
  N        2.492       3.003      74.624
  N        1.237       1.943      73.002
  C        0.535       2.140      71.863
  C        0.431       3.296      71.120
  C        1.154       4.462      71.581
  O        1.188       5.551      71.016
  N       -0.404       3.130      70.042
  C       -0.869       1.904      70.185
  N       -0.268       1.239      71.227
  O       -2.073      -4.174      68.922
  O       -1.895      -3.927      66.388
  H       -0.823      -2.291      72.891
  H       -2.907      -4.587      68.636
  H        2.318       5.013      73.152
  H       -1.604       1.436      69.539
  H        0.558      -0.547      71.831
  H       -1.849       0.361      73.073
  H        2.893       3.820      75.053
  H       -3.238      -0.133      71.247
  H        2.367       2.193      75.236
  H       -1.605      -2.675      70.676
  H       -3.430      -2.472      69.141
  H       -3.275      -0.721      69.029
  P       -4.842      -1.355      73.023
  C       -4.743      -1.398      75.646
  O       -4.440      -0.736      74.437
  O       -5.607      -2.705      73.413
  O       -5.694      -0.445      72.200
  H       -6.300      -2.908      72.758
  H       -4.388      -0.815      76.470
  H       -4.268      -2.357      75.656
  H       -5.802      -1.524      75.728

 6  7  8  9  10  11  12  13  14  15  26  29  33  34 0
 6-311+G(2d,p)
 ****
 36  38  39  40  41 0
 6-311+G(2d,p)
 ****
 1  2  3  4  5  16  17  18  19  20  21  22  23  24  25 0
 3-21G
 ****
 27  28  30  31  32  35  37  42  43  44  45  46  47 0
 3-21G
 ****
 48  49 0
 3-21G
 ****


