%nproc=1
%NoSave
%Mem=1900MB
#P OB98/GEN NMR

erre ene a

0 1
  C     -148.789     181.883     -98.666
  O     -149.626     180.953     -98.005
  P     -150.998     180.543     -98.724
  C     -152.787     178.715     -98.225
  O     -151.425     179.108     -98.153
  C     -152.876     177.216     -98.523
  O     -152.461     176.946     -99.880
  C     -151.970     176.367     -97.641
  O     -152.534     176.171     -96.355
  C     -151.861     175.086     -98.457
  O     -152.988     174.226     -98.222
  C     -151.876     175.625     -99.902
  N     -150.553     175.628    -100.514
  C     -150.013     174.377    -100.800
  O     -150.592     173.324    -100.538
  N     -148.766     174.375    -101.362
  C     -147.996     175.476    -101.610
  O     -146.862     175.409    -102.064
  C     -148.608     176.770    -101.260
  C     -149.833     176.784    -100.731
  O     -150.564     180.239    -100.233
  O     -152.069     181.580     -98.653
  H     -152.849     173.819     -97.346
  H     -151.271     180.520    -100.846
  H     -148.369     173.483    -101.601
  H     -148.027     177.666    -101.444
  H     -150.294     177.726    -100.455
  H     -152.542     175.013    -100.523
  H     -150.965     174.512     -98.204
  H     -150.979     176.830     -97.567
  H     -153.921     176.902     -98.415
  H     -153.285     179.278     -99.021
  H     -153.281     178.948     -97.278
  P     -151.629     175.399     -95.275
  C     -151.747     175.239     -92.669
  O     -152.191     175.872     -93.848
  O     -150.235     176.166     -95.451
  O     -151.569     173.928     -95.511
  H     -150.358     177.099     -95.689
  H     -150.694     174.952     -92.740
  H     -152.355     174.351     -92.483
  H     -151.867     175.932     -91.833
  H     -147.916     182.061     -98.074
  H     -149.318     182.802     -98.806
  H     -148.500     181.489     -99.618

 3  4  5  6  7  8  9  10  11  12  13  23  28  29  30  31  32 0
 6-311+G(2d,p)
 ****
 33  34 0
 6-311+G(2d,p)
 ****
 1  2  14  15  16  17  18  19  20  21  22  24  25  26 0
 3-21G
 ****
 27  35  36  37  38  39  40  41  42  43  44  45 0
 3-21G
 ****


