%nproc=1
%NoSave
%Mem=1900MB
#P OB98/GEN NMR

erre ene a

0 1
  C      176.339     184.202     722.150
  O      177.288     183.541     721.338
  H      175.571     184.651     721.505
  H      176.817     184.999     722.725
  H      175.852     183.492     722.824
  P      178.516     182.792     722.046
  C      179.799     185.039     722.346
  O      179.779     183.747     721.741
  C      181.206     185.603     722.335
  O      182.045     184.971     723.331
  C      181.970     185.415     721.023
  O      181.518     186.262     719.980
  C      183.372     185.760     721.480
  O      183.505     187.178     721.623
  C      183.425     185.041     722.855
  N      184.014     183.703     722.778
  C      185.390     183.635     722.513
  O      186.037     184.663     722.358
  N      185.977     182.397     722.396
  C      185.254     181.318     722.528
  N      185.901     180.128     722.408
  C      183.807     181.358     722.791
  C      183.253     182.560     722.893
  O      178.703     181.350     721.698
  O      178.294     183.051     723.612
  H      182.881     187.455     722.321
  H      179.025     182.601     724.101
  H      183.243     180.431     722.851
  H      182.180     182.651     723.082
  H      183.988     185.630     723.583
  H      184.149     185.433     720.781
  H      181.943     184.357     720.710
  H      181.146     186.673     722.601
  H      186.894     180.133     722.227
  H      179.411     184.937     723.370
  H      185.410     179.231     722.414
  H      179.140     185.713     721.790
  P      180.903     185.543     718.664
  C      182.997     184.284     717.753
  O      182.119     185.375     717.634
  O      179.985     186.685     718.020
  O      180.141     184.282     718.949
  H      179.047     186.556     718.269
  H      183.740     184.338     716.984
  H      182.447     183.371     717.654
  H      183.473     184.312     718.711

 6  7  8  9  10  11  12  13  14  15  16  26  30  31  32  33  35 0
 6-311+G(2d,p)
 ****
 37  38 0
 6-311+G(2d,p)
 ****
 1  2  3  4  5  17  18  19  20  21  22  23  24  25 0
 3-21G
 ****
 27  28  29  34  36  39  40  41  42  43  44  45  46 0
 3-21G
 ****


