%nproc=1
%NoSave
%Mem=1900MB
#P OB98/GEN NMR

erre ene a

0 1
  C       -4.054       6.596     -82.057
  O       -4.751       5.377     -81.903
  H       -2.988       6.416     -81.887
  H       -4.408       7.326     -81.326
  H       -4.189       6.984     -83.070
  P       -6.340       5.422     -82.108
  C       -7.014       3.482     -83.694
  O       -6.803       3.901     -82.352
  C       -5.677       3.196     -84.379
  O       -4.874       2.350     -83.510
  C       -5.814       2.476     -85.728
  O       -4.821       2.985     -86.625
  C       -5.476       1.036     -85.384
  O       -5.031       0.302     -86.519
  C       -4.413       1.245     -84.309
  N       -2.830      -3.529     -84.464
  C       -2.861      -2.562     -85.450
  N       -2.405      -2.920     -86.670
  N       -3.306      -1.348     -85.259
  C       -3.709      -1.120     -83.985
  C       -3.738      -1.992     -82.924
  C       -3.264      -3.340     -83.154
  O       -3.234      -4.246     -82.328
  N       -4.252      -1.388     -81.803
  C       -4.529      -0.155     -82.186
  N       -4.213       0.056     -83.501
  O       -6.512       6.094     -83.551
  O       -7.106       6.149     -81.054
  H       -4.287       0.795     -86.923
  H       -7.348       6.596     -83.604
  H       -2.488      -4.451     -84.668
  H       -4.957       0.616     -81.560
  H       -3.436       1.510     -84.733
  H       -6.356       0.530     -84.970
  H       -2.017      -3.826     -86.883
  H       -6.803       2.576     -86.179
  H       -2.405      -2.221     -87.405
  H       -5.132       4.141     -84.490
  H       -7.538       4.276     -84.237
  H       -7.631       2.579     -83.695
  P       -5.318       3.924     -87.826
  C       -3.344       5.566     -88.202
  O       -4.038       4.415     -88.659
  O       -5.799       5.250     -87.067
  O       -6.424       3.334     -88.636
  H       -6.771       5.307     -87.090
  H       -2.520       5.768     -88.854
  H       -2.980       5.393     -87.211
  H       -4.009       6.404     -88.196

 6  7  8  9  10  11  12  13  14  15  26  29  33  34 0
 6-311+G(2d,p)
 ****
 36  38  39  40  41 0
 6-311+G(2d,p)
 ****
 1  2  3  4  5  16  17  18  19  20  21  22  23  24  25 0
 3-21G
 ****
 27  28  30  31  32  35  37  42  43  44  45  46  47 0
 3-21G
 ****
 48  49 0
 3-21G
 ****


