%nproc=1
%NoSave
%Mem=1900MB
#P OB98/GEN NMR

erre ene a

0 1
  C     -461.409    -463.116    -309.287
  O     -461.605    -464.362    -308.614
  P     -460.338    -465.125    -308.009
  C     -461.503    -466.016    -305.886
  O     -460.860    -466.355    -307.107
  C     -462.911    -465.472    -306.142
  O     -463.712    -466.452    -306.862
  C     -463.660    -465.144    -304.838
  O     -464.534    -464.023    -305.037
  C     -464.523    -466.376    -304.629
  O     -465.623    -466.101    -303.770
  C     -464.893    -466.711    -306.074
  N     -468.777    -470.005    -305.521
  C     -468.696    -468.672    -305.342
  N     -467.639    -467.856    -305.528
  C     -466.578    -468.551    -305.965
  C     -466.506    -469.921    -306.205
  C     -467.671    -470.665    -305.958
  N     -467.740    -472.029    -306.116
  N     -465.249    -470.277    -306.644
  C     -464.556    -469.154    -306.615
  N     -465.322    -468.080    -306.247
  O     -459.309    -464.265    -307.359
  O     -459.734    -465.880    -309.289
  H     -466.113    -465.345    -304.147
  H     -458.752    -465.810    -309.269
  H     -469.610    -468.195    -304.993
  H     -463.501    -469.068    -306.840
  H     -465.696    -466.063    -306.450
  H     -463.921    -467.174    -304.177
  H     -463.016    -464.938    -303.985
  H     -462.838    -464.586    -306.781
  H     -460.905    -465.271    -305.350
  H     -468.582    -472.492    -305.808
  H     -466.887    -472.542    -306.294
  H     -461.526    -466.898    -305.237
  P     -464.113    -462.663    -304.282
  C     -465.526    -460.990    -305.709
  O     -465.346    -461.652    -304.479
  O     -462.773    -462.151    -304.671
  O     -464.213    -463.095    -302.738
  H     -465.047    -463.535    -302.491
  H     -466.481    -460.460    -305.692
  H     -465.547    -461.702    -306.540
  H     -464.729    -460.264    -305.874
  H     -462.352    -462.743    -309.628
  H     -460.759    -463.261    -310.124
  H     -460.969    -462.411    -308.612

 3  4  5  6  7  8  9  10  11  12  22  25  29  30  31  32 0
 6-311+G(2d,p)
 ****
 33  36  37 0
 6-311+G(2d,p)
 ****
 1  2  13  14  15  16  17  18  19  20  21  23  24  26 0
 3-21G
 ****
 27  28  34  35  38  39  40  41  42  43  44  45  46  47  48 0
 3-21G
 ****


