%nproc=1
%NoSave
%Mem=1900MB
#P OB98/GEN NMR

erre ene a

0 1
  C      190.533      14.872      18.343
  O      190.019      16.023      18.982
  H      189.986      14.678      17.417
  H      191.585      15.043      18.100
  H      190.459      14.006      19.007
  P      188.468      15.990      19.392
  C      188.927      17.834      21.168
  O      188.173      17.432      20.034
  C      188.346      19.129      21.726
  O      188.411      20.173      20.727
  C      186.878      19.024      22.123
  O      186.700      18.456      23.408
  C      186.476      20.488      22.107
  O      186.966      21.141      23.291
  C      187.224      21.002      20.867
  N      184.931      23.701      17.171
  C      185.683      24.077      18.228
  N      186.275      23.295      19.153
  C      186.038      21.998      18.903
  C      185.296      21.464      17.862
  C      184.718      22.380      16.966
  N      183.925      22.003      15.907
  N      185.259      20.086      17.949
  C      185.980      19.797      19.013
  N      186.445      20.921      19.642
  O      188.429      15.016      20.661
  O      187.517      15.587      18.315
  H      186.608      22.049      23.285
  H      187.511      14.747      20.856
  H      185.825      25.147      18.347
  H      186.186      18.798      19.373
  H      187.554      22.041      20.973
  H      185.392      20.628      22.087
  H      186.295      18.486      21.366
  H      188.962      19.445      22.577
  H      189.967      17.996      20.867
  H      183.438      22.735      15.413
  H      183.641      21.038      15.833
  H      188.890      17.046      21.928
  P      185.453      17.464      23.614
  C      187.024      15.613      24.536
  O      185.882      16.429      24.763
  O      185.481      16.574      22.286
  O      184.141      18.148      23.811
  H      184.580      16.307      22.027
  H      187.184      14.980      25.383
  H      187.882      16.234      24.388
  H      186.865      15.011      23.666

 6  7  8  9  10  11  12  13  14  15  25  28  32  33  34  35 0
 6-311+G(2d,p)
 ****
 36  39  40 0
 6-311+G(2d,p)
 ****
 1  2  3  4  5  16  17  18  19  20  21  22  23  24 0
 3-21G
 ****
 26  27  29  30  31  37  38  41  42  43  44  45  46  47 0
 3-21G
 ****
 48 0
 3-21G
 ****


