%nproc=1
%NoSave
%Mem=1900MB
#P OB98/GEN NMR

erre ene a

0 1
  C     -306.287     434.683     411.669
  O     -305.157     434.933     410.859
  H     -306.234     435.327     412.549
  H     -306.281     433.642     411.999
  H     -307.213     434.897     411.134
  P     -305.125     434.341     409.371
  C     -303.577     436.088     408.272
  O     -303.706     434.755     408.747
  C     -302.200     436.314     407.639
  O     -301.232     436.566     408.702
  C     -301.686     435.120     406.823
  O     -300.867     435.643     405.769
  C     -300.832     434.391     407.844
  O     -299.941     433.489     407.226
  C     -300.195     435.575     408.576
  N     -299.638     435.194     409.876
  C     -298.341     434.690     409.872
  O     -297.685     434.534     408.843
  N     -297.833     434.329     411.092
  C     -298.508     434.365     412.275
  O     -298.015     433.995     413.332
  C     -299.892     434.861     412.214
  C     -300.385     435.251     411.038
  O     -306.302     434.675     408.517
  O     -304.966     432.762     409.578
  H     -300.418     432.923     406.587
  H     -305.395     432.283     408.845
  H     -296.894     433.971     411.104
  H     -300.453     434.890     413.133
  H     -301.401     435.625     410.955
  H     -299.382     436.011     407.973
  H     -301.458     433.814     408.529
  H     -302.487     434.503     406.411
  H     -302.241     437.225     407.028
  H     -303.710     436.763     409.122
  H     -304.357     436.289     407.535
  P     -301.021     435.166     404.244
  C     -300.768     437.314     402.845
  O     -300.136     436.125     403.312
  O     -302.439     435.012     403.794
  O     -300.251     433.764     404.178
  H     -300.639     433.209     403.478
  H     -300.083     437.867     402.238
  H     -301.066     437.911     403.681
  H     -301.630     437.056     402.266

 6  7  8  9  10  11  12  13  14  15  16  26  31  32  33  34  35 0
 6-311+G(2d,p)
 ****
 36  37 0
 6-311+G(2d,p)
 ****
 1  2  3  4  5  17  18  19  20  21  22  23  24  25 0
 3-21G
 ****
 27  28  29  30  38  39  40  41  42  43  44  45 0
 3-21G
 ****


