%nproc=1
%NoSave
%Mem=1900MB
#P OB98/GEN NMR

erre ene a

0 1
  C     -976.810    -193.362    -681.835
  O     -976.605    -192.815    -683.122
  H     -977.008    -194.434    -681.940
  H     -977.667    -192.892    -681.346
  H     -975.915    -193.236    -681.219
  P     -976.404    -191.229    -683.251
  C     -974.532    -190.962    -685.011
  O     -974.867    -190.988    -683.631
  C     -973.842    -192.270    -685.423
  O     -974.799    -193.361    -685.323
  C     -973.317    -192.257    -686.876
  O     -972.170    -193.116    -686.918
  C     -974.481    -192.881    -687.620
  O     -974.115    -193.285    -688.918
  C     -974.886    -193.979    -686.630
  N     -976.215    -194.507    -686.896
  C     -976.283    -195.860    -687.255
  O     -975.259    -196.525    -687.338
  N     -977.515    -196.401    -687.533
  C     -978.573    -195.648    -687.523
  N     -979.755    -196.252    -687.824
  C     -978.535    -194.200    -687.207
  C     -977.331    -193.701    -686.904
  O     -976.901    -190.415    -682.098
  O     -977.179    -190.851    -684.601
  H     -973.879    -192.508    -689.473
  H     -978.026    -190.414    -684.389
  H     -979.439    -193.617    -687.236
  H     -977.204    -192.653    -686.660
  H     -974.167    -194.811    -686.650
  H     -975.297    -192.160    -687.736
  H     -973.053    -191.258    -687.230
  H     -973.031    -192.484    -684.717
  H     -979.737    -197.232    -688.042
  H     -973.856    -190.116    -685.174
  H     -980.636    -195.756    -687.863
  H     -975.433    -190.815    -685.615
  P     -970.802    -192.782    -686.150
  C     -970.079    -195.056    -685.180
  O     -970.638    -193.768    -684.903
  O     -970.637    -191.338    -685.807
  O     -969.640    -193.246    -687.156
  H     -968.857    -192.679    -687.020
  H     -970.020    -195.621    -684.274
  H     -969.098    -194.938    -685.592
  H     -970.701    -195.571    -685.882

 6  7  8  9  10  11  12  13  14  15  16  26  30  31  32  33  35 0
 6-311+G(2d,p)
 ****
 37  38 0
 6-311+G(2d,p)
 ****
 1  2  3  4  5  17  18  19  20  21  22  23  24  25 0
 3-21G
 ****
 27  28  29  34  36  39  40  41  42  43  44  45  46 0
 3-21G
 ****


