%nproc=1
%NoSave
%Mem=1900MB
#P OB98/GEN NMR

erre ene a

0 1
  C       96.977     268.753    -171.018
  O       97.732     269.516    -171.937
  H       97.122     267.692    -171.243
  H       95.913     268.987    -171.116
  H       97.307     268.941    -169.992
  P       97.817     271.104    -171.735
  C       96.252     272.388    -173.333
  O       96.375     271.699    -172.096
  C       95.984     271.391    -174.458
  O       95.083     270.357    -174.002
  C       95.321     272.007    -175.683
  O       96.253     272.738    -176.456
  C       94.763     270.768    -176.362
  O       95.783     270.090    -177.113
  C       94.316     269.923    -175.150
  N       92.878     270.013    -174.891
  C       92.036     269.534    -175.886
  O       92.443     269.079    -176.957
  N       90.693     269.621    -175.625
  C       90.125     270.229    -174.544
  O       88.915     270.360    -174.398
  C       91.065     270.744    -173.535
  C       92.378     270.612    -173.750
  O       98.967     271.780    -172.405
  O       97.886     271.277    -170.142
  H       96.152     270.750    -177.733
  H       98.801     271.502    -169.880
  H       90.066     269.289    -176.341
  H       90.656     271.218    -172.655
  H       93.084     270.988    -173.022
  H       94.567     268.862    -175.310
  H       93.958     271.004    -177.057
  H       94.486     272.648    -175.377
  H       96.937     270.914    -174.729
  H       97.187     272.920    -173.534
  H       95.437     273.117    -173.256
  P       95.736     273.792    -177.544
  C       96.194     273.246    -180.015
  O       95.376     272.978    -178.880
  O       96.609     274.983    -177.746
  O       94.297     274.232    -176.995
  H       94.296     275.192    -176.823
  H       95.864     272.651    -180.841
  H       97.211     273.006    -179.786
  H       96.121     274.283    -180.270

 6  7  8  9  10  11  12  13  14  15  16  26  31  32  33  34  35 0
 6-311+G(2d,p)
 ****
 36  37 0
 6-311+G(2d,p)
 ****
 1  2  3  4  5  17  18  19  20  21  22  23  24  25 0
 3-21G
 ****
 27  28  29  30  38  39  40  41  42  43  44  45 0
 3-21G
 ****


