%nproc=1
%NoSave
%Mem=1900MB
#P OB98/GEN NMR

erre ene a

0 1
  C      497.132      29.560     779.212
  O      497.353      28.751     780.370
  P      498.017      29.450     781.642
  C      500.551      28.977     781.361
  O      499.493      29.901     781.200
  C      501.823      29.684     781.804
  O      502.205      30.713     780.843
  C      501.697      30.421     783.138
  O      501.855      29.554     784.249
  C      502.882      31.388     783.053
  O      504.104      30.704     783.385
  C      502.871      31.775     781.567
  N      503.394      36.828     781.522
  C      504.354      35.813     781.639
  N      505.624      36.241     781.844
  N      504.101      34.541     781.574
  C      502.775      34.278     781.377
  C      501.731      35.166     781.234
  C      502.041      36.579     781.323
  O      501.216      37.511     781.269
  N      500.534      34.520     781.043
  C      500.845      33.240     781.067
  N      502.202      33.043     781.309
  O      498.284      28.233     782.651
  O      497.178      30.522     782.284
  H      504.832      31.363     783.329
  H      498.432      28.567     783.559
  H      503.641      37.788     781.579
  H      500.152      32.426     780.926
  H      503.889      31.859     781.160
  H      502.800      32.235     783.731
  H      505.890      37.212     781.962
  H      500.763      31.002     783.191
  H      506.346      35.546     781.997
  H      502.644      28.953     781.844
  H      500.727      28.460     780.409
  H      500.264      28.217     782.100
  P      501.284      30.085     785.664
  C      503.364      31.328     786.590
  O      502.101      31.415     785.978
  O      501.876      29.016     786.707
  O      499.786      30.173     785.717
  H      501.299      28.963     787.480
  H      503.889      32.278     786.487
  H      503.976      30.542     786.128
  H      503.241      31.096     787.660
  H      496.685      28.966     778.442
  H      498.066      29.949     778.865
  H      496.479      30.370     779.462

 3  4  5  6  7  8  9  10  11  12  23  26  30  31 0
 6-311+G(2d,p)
 ****
 33  35  36  37  38 0
 6-311+G(2d,p)
 ****
 1  2  13  14  15  16  17  18  19  20  21  22  24  25 0
 3-21G
 ****
 27  28  29  32  34  39  40  41  42  43  44  45  46  47  48  49 0
 3-21G
 ****


