%nproc=1
%NoSave
%Mem=1900MB
#P OB98/GEN NMR

erre ene a

0 1
  C       12.963    -451.519     541.304
  O       13.846    -450.391     541.334
  P       13.402    -449.128     542.211
  C       15.850    -448.988     543.092
  O       14.460    -448.928     543.397
  C       16.676    -448.571     544.310
  O       16.481    -447.178     544.622
  C       16.297    -449.321     545.574
  O       16.851    -450.622     545.574
  C       16.854    -448.413     546.666
  O       18.211    -448.761     546.997
  C       16.791    -447.006     546.016
  N       15.828    -446.134     546.672
  C       16.269    -445.509     547.841
  O       17.405    -445.729     548.277
  N       15.401    -444.672     548.504
  C       14.200    -444.495     548.052
  N       13.389    -443.662     548.750
  C       13.687    -445.159     546.833
  C       14.550    -445.957     546.202
  O       12.092    -449.652     542.972
  O       13.115    -447.899     541.409
  H       18.698    -448.763     546.151
  H       11.464    -448.916     543.109
  H       12.674    -444.991     546.501
  H       14.257    -446.492     545.298
  H       17.774    -446.522     546.063
  H       16.279    -448.494     547.590
  H       15.200    -449.370     545.664
  H       17.744    -448.733     544.086
  H       13.772    -443.225     549.582
  H       16.080    -448.335     542.250
  H       12.429    -443.463     548.492
  H       16.105    -450.005     542.774
  P       15.899    -451.846     545.174
  C       17.465    -452.802     543.372
  O       16.232    -452.146     543.632
  O       14.464    -451.126     545.060
  O       15.870    -453.016     546.093
  H       13.766    -451.793     544.919
  H       17.466    -453.129     542.332
  H       17.581    -453.675     544.026
  H       18.294    -452.107     543.527
  H       13.382    -452.284     540.684
  H       12.015    -451.219     540.909
  H       12.832    -451.896     542.297

 3  4  5  6  7  8  9  10  11  12  13  21  23  27  28  29  30  32 0
 6-311+G(2d,p)
 ****
 34  35 0
 6-311+G(2d,p)
 ****
 1  2  14  15  16  17  18  19  20  22  24  25  26 0
 3-21G
 ****
 31  33  36  37  38  39  40  41  42  43  44  45  46 0
 3-21G
 ****


