%nproc=1
%NoSave
%Mem=1900MB
#P OB98/GEN NMR

erre ene a

0 1
  C       14.638     -90.516      31.994
  O       14.103     -91.362      30.995
  H       13.964     -89.668      32.133
  H       15.618     -90.146      31.685
  H       14.727     -91.057      32.940
  P       14.931     -92.696      30.670
  C       14.407     -92.913      28.125
  O       14.173     -93.395      29.440
  C       13.473     -93.612      27.131
  O       13.697     -95.051      27.215
  C       11.981     -93.374      27.417
  O       11.265     -93.423      26.170
  C       11.625     -94.596      28.245
  O       10.229     -94.769      28.295
  C       12.419     -95.657      27.492
  N        9.972     -99.635      29.537
  C        9.545     -98.613      28.764
  N       10.264     -97.595      28.250
  C       11.559     -97.715      28.586
  C       12.141     -98.696      29.369
  C       11.284     -99.693      29.863
  N       11.709    -100.723      30.670
  N       13.497     -98.461      29.512
  C       13.726     -97.361      28.823
  N       12.585     -96.878      28.246
  O       14.596     -93.647      31.913
  O       16.399     -92.516      30.482
  H        9.995     -95.630      28.697
  H       15.274     -93.541      32.605
  H        8.484     -98.614      28.527
  H       14.684     -96.871      28.717
  H       11.956     -95.922      26.533
  H       11.981     -94.491      29.274
  H       11.780     -92.424      27.918
  H       13.739     -93.309      26.112
  H       15.450     -93.112      27.862
  H       14.226     -91.834      28.096
  H       11.024    -101.381      31.005
  H       12.678    -100.761      30.951
  P       11.191     -92.101      25.261
  C        8.595     -91.987      25.022
  O        9.852     -92.104      24.376
  O       12.322     -92.389      24.162
  O       11.479     -90.818      25.970
  H       12.875     -91.594      24.042
  H        7.815     -92.006      24.290
  H        8.556     -91.064      25.561
  H        8.466     -92.803      25.702

 6  7  8  9  10  11  12  13  14  15  25  28  32  33  34  35 0
 6-311+G(2d,p)
 ****
 36  37  40 0
 6-311+G(2d,p)
 ****
 1  2  3  4  5  16  17  18  19  20  21  22  23  24 0
 3-21G
 ****
 26  27  29  30  31  38  39 41  42  43  44  45  46  47  48 0
 3-21G
 ****


