%nproc=1
%NoSave
%Mem=1900MB
#P OB98/GEN NMR

erre ene a

0 1
  C      -65.371    -177.383     166.582
  O      -64.889    -178.523     165.858
  P      -65.870    -179.790     165.758
  C      -65.462    -180.940     168.048
  O      -66.353    -180.175     167.244
  C      -65.862    -180.881     169.531
  O      -67.139    -181.539     169.756
  C      -64.845    -181.557     170.467
  O      -64.849    -180.831     171.700
  C      -65.462    -182.925     170.707
  O      -64.926    -183.543     171.876
  C      -66.938    -182.551     170.756
  N      -68.638    -186.966     172.709
  C      -67.780    -186.036     173.185
  N      -67.362    -184.891     172.590
  C      -67.960    -184.742     171.395
  C      -68.839    -185.602     170.778
  C      -69.184    -186.771     171.483
  N      -70.038    -187.738     170.990
  N      -69.206    -185.119     169.531
  C      -68.543    -183.987     169.409
  N      -67.801    -183.700     170.518
  O      -64.877    -180.987     165.365
  O      -66.964    -179.632     164.752
  H      -64.861    -182.859     172.570
  H      -65.020    -181.242     164.432
  H      -67.369    -186.237     174.169
  H      -68.558    -183.346     168.537
  H      -67.230    -182.135     171.733
  H      -65.248    -183.582     169.842
  H      -63.825    -181.615     170.075
  H      -65.980    -179.835     169.818
  H      -64.438    -180.559     167.940
  H      -70.200    -188.554     171.545
  H      -70.417    -187.625     170.056
  H      -65.441    -181.973     167.682
  P      -63.561    -179.927     172.008
  C      -62.120    -181.584     173.399
  O      -62.325    -180.945     172.149
  O      -63.809    -179.411     173.504
  O      -63.368    -178.799     171.050
  H      -63.335    -178.570     173.651
  H      -61.829    -182.626     173.222
  H      -63.013    -181.573     174.026
  H      -61.307    -181.075     173.932
  H      -64.627    -176.614     166.573
  H      -65.581    -177.665     167.593
  H      -66.265    -177.019     166.120

 3  4  5  6  7  8  9  10  11  12  22  25  29  30  31  32 0
 6-311+G(2d,p)
 ****
 33  36  37 0
 6-311+G(2d,p)
 ****
 1  2  13  14  15  16  17  18  19  20  21  23  24  26 0
 3-21G
 ****
 27  28  34  35  38  39  40  41  42  43  44  45  46  47  48 0
 3-21G
 ****


