%nproc=1
%NoSave
%Mem=1900MB
#P OB98/GEN NMR

erre ene a

0 1
  C       59.253     753.223    -153.246
  O       60.056     753.654    -152.143
  P       60.897     752.527    -151.375
  C       62.976     752.326    -152.917
  O       61.770     751.730    -152.456
  C       64.114     751.299    -152.880
  O       63.750     750.086    -153.573
  C       65.382     751.790    -153.557
  O       66.067     752.735    -152.748
  C       66.129     750.472    -153.757
  O       66.761     750.061    -152.536
  C       64.979     749.504    -154.098
  N       65.169     745.988    -157.813
  C       65.375     745.908    -156.480
  N       65.311     746.895    -155.562
  C       64.979     748.058    -156.133
  C       64.731     748.295    -157.481
  C       64.844     747.191    -158.345
  N       64.642     747.280    -159.703
  N       64.422     749.624    -157.693
  C       64.505     750.185    -156.502
  N       64.827     749.281    -155.523
  O       59.778     751.473    -150.931
  O       61.660     753.046    -150.198
  H       67.272     750.823    -152.194
  H       59.638     751.517    -149.964
  H       65.630     744.918    -156.105
  H       64.340     751.234    -156.298
  H       65.108     748.527    -153.626
  H       66.906     750.534    -154.524
  H       65.151     752.244    -154.534
  H       64.323     751.056    -151.830
  H       63.235     753.187    -152.300
  H       64.820     746.459    -160.263
  H       64.491     748.191    -160.122
  H       62.817     752.698    -153.932
  P       66.828     753.937    -153.477
  C       64.838     755.469    -154.035
  O       65.739     754.494    -154.527
  O       67.846     753.152    -154.421
  O       67.430     754.953    -152.569
  H       67.415     752.408    -154.886
  H       64.185     755.787    -154.851
  H       65.387     756.343    -153.662
  H       64.231     755.047    -153.229
  H       58.746     754.065    -153.669
  H       58.534     752.508    -152.905
  H       59.879     752.774    -153.989

 3  4  5  6  7  8  9  10  11  12  22  25  29  30  31  32 0
 6-311+G(2d,p)
 ****
 33  36  37 0
 6-311+G(2d,p)
 ****
 1  2  13  14  15  16  17  18  19  20  21  23  24  26 0
 3-21G
 ****
 27  28  34  35  38  39  40  41  42  43  44  45  46  47  48 0
 3-21G
 ****


