%nproc=1
%NoSave
%Mem=1900MB
#P OB98/GEN NMR

erre ene a

0 1
  C      298.097     -20.187    -333.160
  O      299.266     -19.675    -333.770
  H      298.372     -20.666    -332.218
  H      297.627     -20.936    -333.811
  H      297.393     -19.375    -332.958
  P      299.086     -18.977    -335.205
  C      299.284     -16.551    -334.353
  O      299.908     -17.599    -335.089
  C      300.259     -15.393    -334.145
  O      301.358     -15.861    -333.315
  C      300.862     -14.853    -335.448
  O      301.038     -13.436    -335.337
  C      302.228     -15.518    -335.504
  O      303.151     -14.802    -336.317
  C      302.588     -15.580    -334.018
  N      307.319     -17.098    -335.132
  C      306.647     -15.952    -335.399
  N      305.391     -15.622    -335.047
  C      304.838     -16.592    -334.289
  C      305.398     -17.807    -333.930
  C      306.703     -18.056    -334.402
  N      307.384     -19.226    -334.163
  N      304.502     -18.555    -333.188
  C      303.424     -17.796    -333.090
  N      303.575     -16.610    -333.755
  O      297.682     -18.842    -335.683
  O      300.045     -19.870    -336.129
  H      302.774     -14.727    -337.221
  H      300.913     -20.018    -335.704
  H      307.188     -15.212    -335.990
  H      302.511     -18.070    -332.567
  H      302.994     -14.628    -333.646
  H      302.128     -16.530    -335.919
  H      300.261     -15.082    -336.326
  H      299.755     -14.598    -333.584
  H      298.944     -16.926    -333.376
  H      308.318     -19.315    -334.534
  H      306.946     -19.957    -333.608
  H      298.407     -16.214    -334.922
  P      299.958     -12.459    -336.007
  C      299.985     -10.634    -334.193
  O      300.265     -10.952    -335.547
  O      298.533     -12.888    -335.875
  O      300.414     -12.449    -337.550
  H      299.612     -12.496    -338.119
  H      300.229      -9.609    -334.010
  H      300.569     -11.260    -333.551
  H      298.945     -10.793    -333.997

 6  7  8  9  10  11  12  13  14  15  25  28  32  33  34  35 0
 6-311+G(2d,p)
 ****
 36  39  40 0
 6-311+G(2d,p)
 ****
 1  2  3  4  5  16  17  18  19  20  21  22  23  24 0
 3-21G
 ****
 26  27  29  30  31  37  38  41  42  43  44  45  46  47 0
 3-21G
 ****
 48 0
 3-21G
 ****


