%nproc=1
%NoSave
%Mem=1900MB
#P OB98/GEN NMR

erre ene a

0 1
  C     -100.200    -127.250     -99.219
  O      -99.046    -126.437     -99.341
  P      -98.432    -126.196    -100.799
  C     -100.347    -124.458    -101.079
  O      -99.554    -125.468    -101.685
  C     -100.235    -123.147    -101.861
  O     -100.575    -123.390    -103.260
  C     -101.161    -122.034    -101.351
  O     -100.483    -120.784    -101.544
  C     -102.340    -122.126    -102.303
  O     -103.125    -120.945    -102.338
  C     -101.604    -122.443    -103.610
  N     -102.490    -122.968    -104.648
  C     -103.304    -122.057    -105.316
  O     -103.318    -120.849    -105.083
  N     -104.163    -122.590    -106.238
  C     -104.353    -123.918    -106.488
  O     -105.223    -124.337    -107.241
  C     -103.467    -124.834    -105.752
  C     -102.590    -124.327    -104.882
  O      -98.360    -127.671    -101.416
  O      -97.100    -125.520    -100.811
  H     -103.819    -121.074    -103.011
  H      -97.453    -128.022    -101.353
  H     -104.753    -121.943    -106.740
  H     -103.575    -125.894    -105.942
  H     -101.938    -124.981    -104.312
  H     -101.098    -121.544    -103.986
  H     -102.989    -122.954    -101.999
  H     -101.453    -122.151    -100.303
  H      -99.189    -122.814    -101.834
  H     -100.001    -124.297    -100.056
  H     -101.391    -124.791    -101.031
  P     -100.895    -119.551    -100.600
  C      -98.866    -120.041     -99.026
  O     -100.256    -119.842     -99.160
  O     -102.459    -119.841    -100.395
  O     -100.609    -118.212    -101.199
  H     -102.646    -120.779    -100.230
  H      -98.300    -119.429     -99.735
  H      -98.633    -121.095     -99.191
  H      -98.565    -119.768     -98.009
  H     -100.485    -127.313     -98.189
  H      -99.987    -128.230     -99.591
  H     -101.000    -126.820     -99.785

 3  4  5  6  7  8  9  10  11  12  13  23  28  29  30  31  32 0
 6-311+G(2d,p)
 ****
 33  34 0
 6-311+G(2d,p)
 ****
 1  2  14  15  16  17  18  19  20  21  22  24  25  26 0
 3-21G
 ****
 27  35  36  37  38  39  40  41  42  43  44  45 0
 3-21G
 ****


