%nproc=1
%NoSave
%Mem=1900MB
#P OB98/GEN NMR

erre ene a

0 1
  C       75.407     164.360     184.974
  O       76.108     163.129     185.001
  H       74.553     164.266     184.293
  H       76.050     165.167     184.609
  H       75.036     164.608     185.972
  P       77.491     163.062     185.809
  C       79.739     164.337     185.628
  O       78.511     163.992     184.992
  C       80.860     164.414     184.595
  O       81.033     163.136     183.950
  C       80.576     165.410     183.476
  O       80.771     166.740     183.923
  C       81.544     164.928     182.412
  O       82.877     165.392     182.667
  C       81.452     163.393     182.582
  N       80.538     162.770     181.632
  C       81.116     161.901     180.701
  O       82.332     161.687     180.720
  N       80.305     161.307     179.765
  C       79.031     161.552     179.763
  N       78.286     160.934     178.803
  C       78.376     162.450     180.732
  C       79.183     163.021     181.628
  O       78.023     161.697     186.128
  O       77.198     163.917     187.131
  H       83.418     165.068     181.919
  H       76.848     163.343     187.839
  H       77.312     162.615     180.695
  H       78.783     163.699     182.378
  H       82.441     162.930     182.465
  H       81.253     165.276     181.421
  H       79.558     165.273     183.098
  H       81.799     164.660     185.115
  H       78.777     160.332     178.152
  H       79.955     163.550     186.364
  H       77.278     160.974     178.761
  H       79.647     165.291     186.159
  P       79.854     167.929     183.357
  C       79.616     169.050     181.046
  O       80.454     168.286     181.910
  O       79.682     169.090     184.283
  O       78.477     167.189     183.003
  H       77.965     166.963     183.821
  H       80.122     169.223     180.119
  H       79.388     169.988     181.508
  H       78.709     168.513     180.862

 6  7  8  9  10  11  12  13  14  15  16  26  30  31  32  33  35 0
 6-311+G(2d,p)
 ****
 37  38 0
 6-311+G(2d,p)
 ****
 1  2  3  4  5  17  18  19  20  21  22  23  24  25 0
 3-21G
 ****
 27  28  29  34  36  39  40  41  42  43  44  45  46 0
 3-21G
 ****


