%nproc=1
%NoSave
%Mem=1900MB
#P OB98/GEN NMR

erre ene a

0 1
  C      120.464      -3.844     -72.494
  O      119.958      -2.597     -72.926
  H      120.224      -4.625     -73.221
  H      121.550      -3.768     -72.401
  H      120.042      -4.101     -71.518
  P      118.383      -2.534     -73.227
  C      117.393      -0.934     -71.445
  O      117.661      -2.278     -71.816
  C      118.283      -0.523     -70.279
  O      119.633      -0.301     -70.735
  C      117.873       0.773     -69.589
  O      116.784       0.580     -68.698
  C      119.155       1.112     -68.843
  O      119.229       0.338     -67.632
  C      120.243       0.653     -69.827
  N      123.899       4.255     -69.993
  C      123.590       3.326     -69.060
  N      122.601       2.411     -69.077
  C      121.889       2.498     -70.213
  C      122.086       3.392     -71.253
  C      123.141       4.308     -71.111
  N      123.437       5.262     -72.061
  N      121.170       3.176     -72.260
  C      120.432       2.170     -71.839
  N      120.825       1.730     -70.602
  O      118.006      -4.055     -73.564
  O      117.980      -1.614     -74.330
  H      118.547       0.695     -67.031
  H      117.316      -4.064     -74.254
  H      124.229       3.314     -68.180
  H      119.614       1.727     -72.394
  H      121.054       0.127     -69.311
  H      119.224       2.166     -68.563
  H      117.660       1.562     -70.320
  H      118.304      -1.354     -69.561
  H      116.343      -0.841     -71.145
  H      124.312       5.752     -71.997
  H      122.867       5.289     -72.900
  H      117.573      -0.286     -72.310
  P      115.414       1.352     -69.025
  C      113.796      -0.676     -69.054
  O      114.503       0.296     -69.817
  O      115.847       2.390     -70.164
  O      114.777       2.034     -67.863
  H      115.241       3.156     -70.163
  H      113.235      -1.307     -69.712
  H      113.129      -0.183     -68.378
  H      114.492      -1.269     -68.499

 6  7  8  9  10  11  12  13  14  15  25  28  32  33  34  35 0
 6-311+G(2d,p)
 ****
 36  39  40 0
 6-311+G(2d,p)
 ****
 1  2  3  4  5  16  17  18  19  20  21  22  23  24 0
 3-21G
 ****
 26  27  29  30  31  37  38  41  42  43  44  45  46  47  48 0
 3-21G
 ****


