%nproc=1
%NoSave
%Mem=1900MB
#P OB98/GEN NMR

erre ene a

0 1
  C      -48.651    -214.919     320.181
  O      -48.476    -213.797     321.027
  P      -48.321    -212.325     320.414
  C      -45.946    -212.141     321.358
  O      -47.232    -211.540     321.306
  C      -44.905    -211.162     321.909
  O      -43.625    -211.855     322.035
  C      -44.668    -209.919     321.045
  O      -44.372    -208.838     321.942
  C      -43.411    -210.283     320.261
  O      -42.735    -209.144     319.744
  C      -42.646    -211.062     321.325
  N      -37.643    -211.637     320.442
  C      -38.344    -210.622     320.984
  N      -39.680    -210.535     321.159
  C      -40.295    -211.650     320.710
  C      -39.716    -212.752     320.107
  C      -38.308    -212.731     319.987
  N      -37.573    -213.771     319.467
  N      -40.688    -213.661     319.734
  C      -41.828    -213.114     320.102
  N      -41.631    -211.927     320.754
  O      -49.602    -211.583     320.203
  O      -47.554    -212.562     319.028
  H      -42.101    -209.447     319.066
  H      -48.177    -212.448     318.280
  H      -37.759    -209.774     321.326
  H      -42.807    -213.529     319.927
  H      -42.160    -210.397     322.052
  H      -43.690    -210.926     319.414
  H      -45.514    -209.660     320.394
  H      -45.212    -210.873     322.927
  H      -45.664    -212.433     320.341
  H      -36.570    -213.709     319.555
  H      -38.009    -214.685     319.373
  H      -45.981    -213.046     321.981
  P      -45.132    -207.434     321.784
  C      -43.332    -206.854     320.052
  O      -44.070    -206.401     321.176
  O      -45.864    -206.958     322.994
  O      -46.129    -207.687     320.546
  H      -46.831    -207.000     320.545
  H      -42.507    -207.502     320.388
  H      -42.912    -205.996     319.526
  H      -43.973    -207.418     319.362
  H      -48.734    -215.805     320.776
  H      -47.809    -215.007     319.527
  H      -49.542    -214.793     319.602

 3  4  5  6  7  8  9  10  11  12  22  25  29  30  31  32 0
 6-311+G(2d,p)
 ****
 33  36  37 0
 6-311+G(2d,p)
 ****
 1  2  13  14  15  16  17  18  19  20  21  23  24  26 0
 3-21G
 ****
 27  28  34  35  38  39  40  41  42  43  44  45  46  47  48 0
 3-21G
 ****


