%nproc=1
%NoSave
%Mem=1900MB
#P OB98/GEN NMR

erre ene a

0 1
  C      -94.251     145.245     122.433
  O      -94.860     145.210     121.153
  P      -95.008     146.547     120.280
  C      -93.496     145.822     118.332
  O      -93.646     146.697     119.443
  C      -92.504     146.398     117.323
  O      -92.895     147.755     117.007
  C      -91.071     146.442     117.839
  O      -90.179     146.172     116.754
  C      -90.871     147.884     118.272
  O      -89.483     148.256     118.219
  C      -91.779     148.623     117.284
  N      -90.842     153.622     117.974
  C      -90.129     152.652     117.361
  N      -90.427     151.340     117.237
  C      -91.624     151.075     117.782
  C      -92.466     151.961     118.438
  C      -92.030     153.294     118.529
  N      -92.764     154.285     119.145
  N      -93.598     151.313     118.892
  C      -93.450     150.068     118.500
  N      -92.279     149.875     117.816
  O      -95.400     147.761     121.048
  O      -96.083     146.178     119.159
  H      -89.187     148.127     117.295
  H      -96.667     146.941     118.984
  H      -89.193     152.970     116.911
  H      -94.150     149.269     118.692
  H      -91.264     148.828     116.338
  H      -91.213     148.008     119.305
  H      -90.890     145.734     118.656
  H      -92.567     145.814     116.398
  H      -94.472     145.707     117.850
  H      -92.432     155.230     119.054
  H      -93.720     154.079     119.402
  H      -93.164     144.839     118.683
  P      -89.015     145.098     117.049
  C      -90.003     143.239     115.518
  O      -89.711     143.673     116.826
  O      -88.354     145.338     118.367
  O      -88.068     145.309     115.776
  H      -88.566     145.674     115.012
  H      -90.506     142.270     115.575
  H      -89.079     143.117     114.946
  H      -90.662     143.952     115.015
  H      -94.247     144.261     122.853
  H      -94.802     145.903     123.072
  H      -93.245     145.597     122.340

 3  4  5  6  7  8  9  10  11  12  22  25  29  30  31  32 0
 6-311+G(2d,p)
 ****
 33  36  37 0
 6-311+G(2d,p)
 ****
 1  2  13  14  15  16  17  18  19  20  21  23  24  26 0
 3-21G
 ****
 27  28  34  35  38  39  40  41  42  43  44  45  46  47  48 0
 3-21G
 ****


