%nproc=1
%NoSave
%Mem=1900MB
#P OB98/GEN NMR

erre ene a

0 1
  C     -893.360    -572.511    1464.041
  O     -893.220    -573.808    1464.617
  P     -892.580    -574.020    1466.111
  C     -894.570    -574.890    1467.580
  O     -893.760    -573.798    1467.191
  C     -896.040    -574.609    1467.384
  O     -896.360    -574.588    1465.949
  C     -897.030    -575.615    1467.943
  O     -897.120    -575.521    1469.383
  C     -898.320    -575.251    1467.204
  O     -899.000    -574.183    1467.863
  C     -897.800    -574.802    1465.826
  N     -898.130    -575.720    1464.766
  C     -899.270    -575.434    1463.998
  O     -900.000    -574.463    1464.260
  N     -899.540    -576.262    1462.941
  C     -898.860    -577.292    1462.697
  N     -899.170    -578.099    1461.584
  C     -897.690    -577.747    1463.577
  C     -897.410    -576.911    1464.541
  O     -891.340    -573.246    1466.357
  O     -892.310    -575.626    1466.163
  H     -891.570    -575.767    1466.802
  H     -899.160    -574.484    1468.774
  H     -897.150    -578.627    1463.383
  H     -896.610    -577.137    1465.274
  H     -898.230    -573.799    1465.584
  H     -899.030    -576.108    1467.207
  H     -896.700    -576.664    1467.678
  H     -896.280    -573.574    1467.784
  H     -899.980    -577.743    1461.024
  H     -894.390    -575.110    1468.628
  H     -898.670    -578.917    1461.354
  H     -894.260    -575.804    1466.985
  P     -895.820    -576.026    1470.209
  C     -895.290    -573.621    1471.158
  O     -894.840    -574.701    1470.410
  O     -895.010    -576.965    1469.201
  O     -896.140    -576.725    1471.506
  H     -894.620    -577.765    1469.656
  H     -894.420    -573.141    1471.593
  H     -895.930    -573.949    1471.988
  H     -895.840    -572.958    1470.545
  H     -893.797    -572.598    1463.068
  H     -892.397    -572.051    1463.960
  H     -893.991    -571.911    1464.663

 3  4  5  6  7  8  9  10  11  12  13  24  27  28  29  30  32 0
 6-311+G(2d,p)
 ****
 34  35 0
 6-311+G(2d,p)
 ****
 1  2  14  15  16  17  18  19  20  21  22  23  25  26 0
 3-21G
 ****
 31  33  36  37  38  39  40  41  42  43  44  45  46 0
 3-21G
 ****


