%nproc=1
%NoSave
%Mem=1900MB
#P OB98/GEN NMR

erre ene a

0 1
  C      234.398    -569.242    -773.841
  O      233.946    -570.266    -774.712
  H      234.136    -569.512    -772.815
  H      233.903    -568.290    -774.094
  H      235.484    -569.128    -773.920
  P      234.183    -570.021    -776.283
  C      235.233    -572.317    -776.888
  O      234.093    -571.468    -776.982
  C      235.025    -573.580    -777.722
  O      234.123    -574.509    -777.056
  C      234.446    -573.323    -779.115
  O      235.465    -572.969    -780.030
  C      233.823    -574.679    -779.425
  O      234.823    -575.621    -779.874
  C      233.260    -575.111    -778.050
  N      228.431    -576.325    -778.923
  C      229.596    -576.913    -779.377
  N      229.456    -577.957    -780.219
  N      230.799    -576.502    -779.060
  C      230.788    -575.399    -778.253
  C      229.708    -574.731    -777.736
  C      228.392    -575.241    -778.043
  O      227.311    -574.812    -777.609
  N      230.099    -573.677    -776.934
  C      231.424    -573.690    -777.022
  N      231.889    -574.725    -777.802
  O      235.742    -569.668    -776.366
  O      233.349    -568.947    -776.902
  H      234.378    -576.419    -780.204
  H      235.869    -568.970    -777.055
  H      227.540    -576.708    -779.174
  H      232.074    -572.994    -776.518
  H      233.303    -576.197    -777.917
  H      233.077    -574.604    -780.223
  H      228.597    -578.137    -780.726
  H      233.652    -572.567    -779.065
  H      230.318    -578.334    -780.622
  H      236.007    -574.094    -777.798
  H      235.367    -572.602    -775.820
  H      236.120    -571.784    -777.229
  P      235.044    -572.082    -781.302
  C      237.583    -571.527    -781.509
  O      236.366    -571.827    -782.188
  O      234.748    -570.630    -780.662
  O      233.863    -572.605    -782.053
  H      233.771    -570.487    -780.630
  H      238.365    -571.385    -782.225
  H      237.838    -572.338    -780.859
  H      237.459    -570.634    -780.933

 6  7  8  9  10  11  12  13  14  15  26  29  33  34 0
 6-311+G(2d,p)
 ****
 36  38  39  40  41 0
 6-311+G(2d,p)
 ****
 1  2  3  4  5  16  17  18  19  20  21  22  23  24  25 0
 3-21G
 ****
 27  28  30  31  32  35  37  42  43  44  45  46  47 0
 3-21G
 ****
 48  49 0
 3-21G
 ****


