%nproc=1
%NoSave
%Mem=1900MB
#P OB98/GEN NMR

erre ene a

0 1
  C     -897.979     465.897    1308.207
  O     -899.088     466.705    1307.851
  P     -900.225     466.114    1306.860
  C     -902.771     466.466    1306.704
  O     -901.629     466.523    1307.534
  C     -904.058     466.780    1307.512
  O     -904.148     465.900    1308.654
  C     -904.133     468.192    1308.072
  O     -904.472     469.122    1307.041
  C     -905.161     468.041    1309.160
  O     -906.474     468.092    1308.629
  C     -904.855     466.600    1309.694
  N     -904.103     466.635    1310.947
  C     -904.602     467.508    1311.935
  O     -905.595     468.211    1311.695
  N     -903.945     467.603    1313.134
  C     -902.875     466.919    1313.321
  N     -902.255     467.030    1314.553
  C     -902.291     466.015    1312.335
  C     -902.960     465.940    1311.180
  O     -900.090     464.683    1306.514
  O     -900.128     467.096    1305.596
  H     -906.521     468.883    1308.038
  H     -899.331     466.906    1305.051
  H     -901.381     465.436    1312.535
  H     -902.611     465.275    1310.346
  H     -905.774     466.064    1309.866
  H     -905.072     468.805    1309.943
  H     -903.160     468.480    1308.528
  H     -904.928     466.566    1306.854
  H     -902.666     467.694    1315.188
  H     -902.846     465.450    1306.287
  H     -901.382     466.570    1314.801
  H     -902.669     467.199    1305.882
  P     -904.281     470.682    1307.293
  C     -904.268     472.822    1305.827
  O     -904.175     471.401    1305.863
  O     -903.230     471.084    1308.256
  O     -905.741     471.157    1307.787
  H     -905.628     471.757    1308.571
  H     -903.881     473.176    1304.878
  H     -903.728     473.274    1306.660
  H     -905.323     473.096    1305.884
  H     -897.335     466.445    1308.862
  H     -897.440     465.622    1307.324
  H     -898.325     465.014    1308.703

 3  4  5  6  7  8  9  10  11  12  13  23  27  28  29  30  32 0
 6-311+G(2d,p)
 ****
 34  35 0
 6-311+G(2d,p)
 ****
 1  2  14  15  16  17  18  19  20  21  22  24  25  26 0
 3-21G
 ****
 31  33  36  37  38  39  40  41  42  43  44  45  46 0
 3-21G
 ****


