%nproc=1
%NoSave
%Mem=1900MB
#P OB98/GEN NMR

erre ene a

0 1
  C     -103.575     205.974    -233.198
  O     -104.347     206.648    -234.171
  H     -103.369     204.962    -233.553
  H     -104.125     205.906    -232.257
  H     -102.621     206.487    -233.034
  P     -104.678     208.200    -233.958
  C     -106.785     207.506    -232.642
  O     -105.606     208.303    -232.652
  C     -107.898     208.235    -231.896
  O     -107.549     208.390    -230.499
  C     -108.172     209.644    -232.416
  O     -108.893     209.602    -233.632
  C     -108.927     210.233    -231.237
  O     -110.299     209.806    -231.233
  C     -108.166     209.617    -230.037
  N     -107.168     210.525    -229.469
  C     -107.652     211.503    -228.605
  O     -108.841     211.620    -228.318
  N     -106.717     212.372    -228.109
  C     -105.397     212.415    -228.461
  O     -104.647     213.343    -228.168
  C     -104.930     211.316    -229.320
  C     -105.825     210.442    -229.789
  O     -105.193     208.926    -235.157
  O     -103.285     208.816    -233.453
  H     -102.844     209.269    -234.199
  H     -110.731     210.253    -231.988
  H     -107.062     213.116    -227.518
  H     -103.877     211.277    -229.570
  H     -105.511     209.641    -230.448
  H     -108.867     209.337    -229.238
  H     -108.936     211.325    -231.249
  H     -107.229     210.187    -232.539
  H     -108.807     207.619    -231.950
  H     -106.562     206.563    -232.130
  H     -107.083     207.291    -233.675
  P     -108.477     210.525    -234.875
  C     -109.718     212.558    -233.926
  O     -108.468     212.048    -234.378
  O     -109.251     210.283    -236.129
  O     -106.920     210.210    -235.096
  H     -106.775     209.959    -236.029
  H     -109.598     213.576    -233.620
  H     -110.063     211.975    -233.098
  H     -110.433     212.506    -234.721

 6  7  8  9  10  11  12  13  14  15  16  27  31  32  33  34  35 0
 6-311+G(2d,p)
 ****
 36  37 0
 6-311+G(2d,p)
 ****
 1  2  3  4  5  17  18  19  20  21  22  23  24  25 0
 3-21G
 ****
 26  28  29  30  38  39  40  41  42  43  44  45 0
 3-21G
 ****


