%nproc=1
%NoSave
%Mem=1900MB
#P OB98/GEN NMR

erre ene a

0 1
  C      229.172    -303.996     620.800
  O      229.876    -305.191     621.080
  H      228.348    -304.225     620.119
  H      229.836    -303.275     620.315
  H      228.760    -303.563     621.717
  P      231.041    -305.162     622.180
  C      232.606    -303.237     622.892
  O      232.004    -303.935     621.806
  C      233.279    -301.965     622.376
  O      232.308    -301.106     621.738
  C      233.920    -301.125     623.471
  O      235.147    -301.684     623.895
  C      234.045    -299.781     622.767
  O      235.198    -299.757     621.912
  C      232.742    -299.741     621.936
  N      231.692    -298.937     622.561
  C      231.913    -297.563     622.611
  O      232.940    -297.028     622.187
  N      230.920    -296.818     623.191
  C      229.809    -297.316     623.813
  O      228.993    -296.609     624.398
  C      229.641    -298.773     623.751
  C      230.575    -299.507     623.142
  O      231.737    -306.460     622.417
  O      230.300    -304.645     623.503
  H      235.005    -300.369     621.175
  H      230.163    -305.397     624.110
  H      231.066    -295.825     623.246
  H      228.765    -299.202     624.224
  H      230.469    -300.584     623.092
  H      232.939    -299.333     620.934
  H      234.142    -298.953     623.467
  H      233.228    -301.014     624.315
  H      234.022    -302.249     621.616
  H      233.358    -303.887     623.352
  H      231.837    -303.001     623.635
  P      235.669    -301.421     625.387
  C      236.055    -299.346     626.855
  O      235.980    -299.850     625.528
  O      236.767    -302.326     625.847
  O      234.359    -301.613     626.290
  H      234.507    -302.342     626.921
  H      236.265    -298.297     626.827
  H      236.835    -299.852     627.385
  H      235.122    -299.510     627.352

 6  7  8  9  10  11  12  13  14  15  16  26  31  32  33  34  35 0
 6-311+G(2d,p)
 ****
 36  37 0
 6-311+G(2d,p)
 ****
 1  2  3  4  5  17  18  19  20  21  22  23  24  25 0
 3-21G
 ****
 27  28  29  30  38  39  40  41  42  43  44  45 0
 3-21G
 ****


