%nproc=1
%NoSave
%Mem=1900MB
#P OB98/GEN NMR

erre ene a

0 1
  C     -169.292      61.430     -15.411
  O     -168.101      62.192     -15.495
  H     -169.063      60.474     -14.931
  H     -169.695      61.233     -16.409
  H     -170.037      61.955     -14.806
  P     -168.154      63.610     -16.233
  C     -167.689      62.443     -18.496
  O     -168.543      63.312     -17.760
  C     -166.221      62.763     -18.211
  O     -165.379      61.682     -18.657
  C     -165.710      64.011     -18.922
  O     -166.189      65.179     -18.285
  C     -164.209      63.788     -18.828
  O     -163.716      64.122     -17.520
  C     -164.115      62.260     -19.073
  N     -163.814      61.908     -20.457
  C     -162.454      61.795     -20.779
  O     -161.594      62.002     -19.924
  N     -162.118      61.465     -22.071
  C     -163.043      61.229     -22.946
  N     -162.639      60.904     -24.203
  C     -164.483      61.300     -22.637
  C     -164.794      61.652     -21.390
  O     -166.953      64.490     -16.062
  O     -169.476      64.300     -15.652
  H     -163.931      65.065     -17.382
  H     -169.258      64.871     -14.890
  H     -165.223      61.084     -23.397
  H     -165.832      61.733     -21.078
  H     -163.340      61.815     -18.433
  H     -163.653      64.396     -19.547
  H     -165.996      63.992     -19.978
  H     -166.099      62.852     -17.124
  H     -161.639      60.847     -24.365
  H     -167.909      62.594     -19.556
  H     -163.260      60.542     -24.914
  H     -167.899      61.395     -18.248
  P     -166.762      66.416     -19.128
  C     -165.230      67.965     -17.758
  O     -165.629      67.554     -19.057
  O     -168.129      66.870     -18.741
  O     -166.658      65.922     -20.645
  H     -167.393      65.292     -20.856
  H     -164.477      68.721     -17.839
  H     -164.837      67.126     -17.223
  H     -166.075      68.359     -17.233

 6  7  8  9  10  11  12  13  14  15  16  26  30  31  32  33  35 0
 6-311+G(2d,p)
 ****
 37  38 0
 6-311+G(2d,p)
 ****
 1  2  3  4  5  17  18  19  20  21  22  23  24  25 0
 3-21G
 ****
 27  28  29  34  36  39  40  41  42  43  44  45  46 0
 3-21G
 ****


