%nproc=1
%NoSave
%Mem=1900MB
#P OB98/GEN NMR

erre ene a

0 1
  C       37.677      56.603      33.226
  O       38.411      56.077      34.314
  H       37.481      57.661      33.414
  H       36.720      56.084      33.113
  H       38.258      56.514      32.303
  P       38.600      54.485      34.399
  C       41.063      54.566      35.177
  O       40.163      54.223      34.125
  C       42.381      55.111      34.617
  O       42.143      56.338      33.896
  C       43.400      55.469      35.687
  O       43.939      54.354      36.366
  C       44.330      56.421      34.948
  O       45.362      55.759      34.223
  C       43.358      57.112      33.959
  N       43.102      58.501      34.325
  C       44.161      59.382      34.143
  O       45.267      59.038      33.720
  N       43.929      60.681      34.500
  C       42.779      61.160      35.060
  O       42.644      62.331      35.400
  C       41.701      60.176      35.253
  C       41.907      58.909      34.883
  O       37.688      53.673      33.529
  O       38.450      54.167      35.960
  H       45.906      56.452      33.799
  H       38.284      53.206      36.113
  H       44.681      61.337      34.366
  H       40.775      60.520      35.696
  H       41.128      58.163      35.015
  H       43.782      57.106      32.946
  H       44.818      57.118      35.634
  H       42.893      56.069      36.451
  H       42.788      54.376      33.912
  H       41.266      53.655      35.749
  H       40.594      55.302      35.838
  P       43.502      53.932      37.845
  C       43.272      51.382      37.395
  O       42.613      52.594      37.743
  O       43.044      55.030      38.749
  O       44.895      53.368      38.435
  H       44.918      53.587      39.387
  H       42.560      50.584      37.366
  H       44.024      51.163      38.124
  H       43.728      51.488      36.433

 6  7  8  9  10  11  12  13  14  15  16  26  31  32  33  34  35 0
 6-311+G(2d,p)
 ****
 36  37 0
 6-311+G(2d,p)
 ****
 1  2  3  4  5  17  18  19  20  21  22  23  24  25 0
 3-21G
 ****
 27  28  29  30  38  39  40  41  42  43  44  45 0
 3-21G
 ****


