%nproc=1
%NoSave
%Mem=1900MB
#P OB98/GEN NMR

erre ene a

0 1
  C       72.302    -119.416    -334.549
  O       71.353    -118.666    -335.286
  H       72.822    -118.741    -333.866
  H       73.032    -119.869    -335.224
  H       71.793    -120.188    -333.969
  P       70.499    -119.467    -336.383
  C       71.335    -118.190    -338.465
  O       70.252    -118.392    -337.557
  C       71.447    -116.703    -338.828
  O       72.013    -115.994    -337.692
  C       72.348    -116.442    -340.036
  O       71.792    -115.378    -340.818
  C       73.659    -115.987    -339.414
  O       74.421    -115.160    -340.298
  C       73.171    -115.267    -338.155
  N       76.894    -112.464    -336.076
  C       75.953    -112.173    -336.996
  N       74.980    -112.983    -337.489
  C       75.016    -114.184    -336.879
  C       75.916    -114.623    -335.928
  C       76.907    -113.700    -335.522
  N       77.883    -113.994    -334.601
  N       75.660    -115.941    -335.582
  C       74.605    -116.274    -336.309
  N       74.198    -115.254    -337.126
  O       69.276    -120.152    -335.878
  O       71.609    -120.427    -337.021
  H       73.809    -114.498    -340.687
  H       72.444    -119.944    -337.188
  H       75.981    -111.165    -337.408
  H       74.117    -117.247    -336.292
  H       72.881    -114.227    -338.338
  H       74.267    -116.860    -339.156
  H       72.483    -117.327    -340.658
  H       70.443    -116.294    -338.985
  H       71.179    -118.772    -339.379
  H       78.543    -113.270    -334.358
  H       77.894    -114.905    -334.159
  H       72.250    -118.533    -337.981
  P       71.789    -115.530    -342.414
  C       72.795    -113.220    -342.996
  O       71.641    -114.058    -343.069
  O       70.872    -116.565    -342.971
  O       73.320    -115.887    -342.730
  H       73.347    -116.531    -343.467
  H       72.582    -112.279    -343.458
  H       73.610    -113.690    -343.505
  H       73.058    -113.063    -341.971

 6  7  8  9  10  11  12  13  14  15  25  28  32  33  34  35 0
 6-311+G(2d,p)
 ****
 36  39  40 0
 6-311+G(2d,p)
 ****
 1  2  3  4  5  16  17  18  19  20  21  22  23  24 0
 3-21G
 ****
 26  27  29  30  31  37  38  41  42  43  44  45  46  47 0
 3-21G
 ****
 48 0
 3-21G
 ****


