%nproc=1
%NoSave
%Mem=1900MB
#P OB98/GEN NMR

erre ene a

0 1
  C     1446.073     -52.483     367.544
  O     1445.284     -53.662     367.758
  P     1445.856     -55.027     367.145
  C     1444.946     -54.185     364.859
  O     1445.115     -55.289     365.745
  C     1445.029     -54.659     363.397
  O     1446.343     -55.144     363.085
  C     1444.087     -55.789     363.050
  O     1442.745     -55.323     362.842
  C     1444.702     -56.318     361.764
  O     1444.248     -55.505     360.651
  C     1446.195     -56.113     362.003
  N     1448.378     -60.371     360.325
  C     1447.772     -59.353     359.619
  N     1447.763     -59.454     358.281
  N     1447.211     -58.298     360.188
  C     1447.308     -58.304     361.523
  C     1447.890     -59.262     362.356
  C     1448.480     -60.430     361.704
  O     1448.990     -61.374     362.283
  N     1447.828     -58.913     363.680
  C     1447.223     -57.732     363.667
  N     1446.895     -57.324     362.394
  O     1445.219     -56.152     368.097
  O     1447.340     -55.099     367.109
  H     1444.894     -55.653     359.933
  H     1445.777     -56.942     368.122
  H     1448.775     -61.146     359.843
  H     1447.014     -57.137     364.538
  H     1446.709     -55.692     361.121
  H     1444.401     -57.356     361.542
  H     1448.231     -60.179     357.778
  H     1444.120     -56.577     363.832
  H     1447.351     -58.704     357.736
  H     1444.817     -53.793     362.752
  H     1445.744     -53.439     365.039
  H     1443.987     -53.697     365.062
  P     1441.816     -55.182     364.125
  C     1441.150     -57.679     364.240
  O     1440.731     -56.362     364.013
  O     1440.966     -53.861     363.816
  O     1442.535     -55.086     365.431
  H     1440.696     -53.414     364.639
  H     1441.801     -57.745     365.106
  H     1441.677     -58.076     363.352
  H     1440.271     -58.310     364.421
  H     1445.589     -51.643     367.997
  H     1446.178     -52.310     366.493
  H     1447.040     -52.617     367.982

 3  4  5  6  7  8  9  10  11  12  23  26  30  31  33  0
 6-311+G(2d,p)
 ****
 35  36  37  38 0
 6-311+G(2d,p)
 ****
 1  2  13  14  15  16  17  18  19  20  21  22  24  25  27  28  29 0
 3-21G
 ****
 32  34  39  40  41  42  43  44  45  46  47  48  49 0
 3-21G
 ****


