%nproc=1
%NoSave
%Mem=1900MB
#P OB98/GEN NMR

erre ene a

0 1
  C      318.874    -507.769     141.020
  O      318.982    -506.875     139.928
  H      318.061    -507.427     141.668
  H      319.801    -507.778     141.596
  H      318.641    -508.780     140.672
  P      319.997    -507.228     138.738
  C      318.366    -506.731     136.804
  O      319.560    -506.344     137.472
  C      317.862    -505.569     135.939
  O      317.239    -504.567     136.773
  C      318.965    -504.847     135.175
  O      319.383    -505.599     134.050
  C      318.271    -503.537     134.842
  O      317.413    -503.679     133.698
  C      317.448    -503.281     136.127
  N      318.083    -502.333     137.034
  C      318.222    -501.024     136.564
  O      317.875    -500.670     135.437
  N      318.814    -500.143     137.428
  C      319.361    -500.459     138.641
  O      319.960    -499.647     139.341
  C      319.209    -501.846     139.072
  C      318.582    -502.712     138.265
  O      320.189    -508.679     138.459
  O      321.369    -506.536     139.200
  H      318.003    -503.766     132.919
  H      321.985    -507.220     139.518
  H      318.940    -499.201     137.101
  H      319.618    -502.130     140.035
  H      318.462    -503.744     138.563
  H      316.448    -502.903     135.863
  H      318.977    -502.742     134.618
  H      319.808    -504.644     135.841
  H      317.100    -505.963     135.249
  H      317.606    -506.982     137.554
  H      318.572    -507.612     136.187
  P      320.941    -505.688     133.683
  C      320.863    -507.701     132.083
  O      321.062    -506.292     132.206
  O      321.801    -506.351     134.714
  O      321.367    -504.159     133.482
  H      322.063    -503.926     134.128
  H      320.967    -507.988     131.057
  H      319.881    -507.954     132.426
  H      321.591    -508.217     132.674

 6  7  8  9  10  11  12  13  14  15  16  26  31  32  33  34  35 0
 6-311+G(2d,p)
 ****
 36  37 0
 6-311+G(2d,p)
 ****
 1  2  3  4  5  17  18  19  20  21  22  23  24  25 0
 3-21G
 ****
 27  28  29  30  38  39  40  41  42  43  44  45 0
 3-21G
 ****


