%nproc=1
%NoSave
%Mem=1900MB
#P OB98/GEN NMR

erre ene a

0 1
  C     -200.312     117.474     615.817
  O     -199.517     118.370     615.078
  H     -200.363     116.521     615.273
  H     -201.325     117.858     615.940
  H     -199.859     117.280     616.800
  P     -199.335     119.866     615.631
  C     -198.029     119.173     617.751
  O     -199.217     119.763     617.225
  C     -197.099     120.260     618.296
  O     -197.863     121.068     619.236
  C     -195.887     119.674     619.040
  O     -194.641     120.183     618.567
  C     -196.225     119.907     620.510
  O     -195.106     120.012     621.368
  C     -197.113     121.157     620.475
  N     -198.022     121.282     621.605
  C     -197.664     122.180     622.615
  O     -196.664     122.893     622.600
  N     -198.531     122.246     623.668
  C     -199.686     121.528     623.828
  O     -200.423     121.650     624.795
  C     -199.987     120.581     622.748
  C     -199.166     120.501     621.706
  O     -200.331     120.862     615.139
  O     -197.844     120.261     615.191
  H     -194.471     119.313     621.097
  H     -197.880     120.849     614.405
  H     -198.296     122.918     624.397
  H     -200.884     119.988     622.849
  H     -199.355     119.805     620.889
  H     -196.502     122.064     620.422
  H     -196.828     119.054     620.859
  H     -195.799     118.598     618.860
  H     -196.790     120.913     617.468
  H     -197.540     118.628     616.938
  H     -198.288     118.471     618.554
  P     -193.229     119.447     618.729
  C     -192.945     118.649     616.244
  O     -193.131     118.303     617.610
  O     -192.863     119.062     620.122
  O     -192.173     120.549     618.226
  H     -191.353     120.414     618.762
  H     -192.904     117.758     615.653
  H     -192.029     119.192     616.135
  H     -193.762     119.258     615.916

 6  7  8  9  10  11  12  13  14  15  16  26  31  32  33  34  35 0
 6-311+G(2d,p)
 ****
 36  37 0
 6-311+G(2d,p)
 ****
 1  2  3  4  5  17  18  19  20  21  22  23  24  25 0
 3-21G
 ****
 27  28  29  30  38  39  40  41  42  43  44  45 0
 3-21G
 ****


