%nproc=1
%NoSave
%Mem=1900MB
#P OB98/GEN NMR

erre ene a

0 1
  C      -13.577     127.583      66.750
  O      -12.181     127.384      66.706
  H      -14.050     126.916      66.025
  H      -13.815     128.615      66.481
  H      -13.968     127.357      67.745
  P      -11.291     128.147      67.802
  C      -10.832     130.208      66.291
  O      -11.420     129.717      67.486
  C      -10.774     131.736      66.316
  O      -12.124     132.254      66.444
  C       -9.943     132.301      67.470
  O       -9.228     133.448      67.000
  C      -10.984     132.736      68.485
  O      -10.513     133.767      69.351
  C      -12.151     133.143      67.576
  N      -13.427     133.082      68.283
  C      -13.839     134.246      68.938
  O      -13.133     135.256      68.909
  N      -15.006     134.225      69.656
  C      -15.662     133.115      69.783
  N      -16.797     133.151      70.533
  C      -15.230     131.845      69.167
  C      -14.120     131.903      68.432
  O       -9.791     127.809      67.363
  O      -11.566     127.777      69.220
  H       -9.732     133.426      69.839
  H       -9.198     127.763      68.136
  H      -15.796     130.939      69.323
  H      -13.721     131.020      67.947
  H      -12.007     134.164      67.198
  H      -11.269     131.879      69.107
  H       -9.237     131.578      67.887
  H      -10.389     132.084      65.350
  H      -17.050     134.036      70.954
  H      -11.440     129.890      65.438
  H      -17.360     132.339      70.736
  H       -9.826     129.791      66.183
  P       -7.748     133.194      66.439
  C       -6.396     133.165      68.656
  O       -6.912     132.417      67.564
  O       -7.102     134.658      66.427
  O       -7.722     132.569      65.083
  H       -7.009     134.974      65.510
  H       -5.866     132.512      69.317
  H       -7.203     133.629      69.184
  H       -5.730     133.918      68.289

 6  7  8  9  10  11  12  13  14  15  16  26  30  31  32  33  35 0
 6-311+G(2d,p)
 ****
 37  38 0
 6-311+G(2d,p)
 ****
 1  2  3  4  5  17  18  19  20  21  22  23  24  25 0
 3-21G
 ****
 27  28  29  34  36  39  40  41  42  43  44  45  46 0
 3-21G
 ****


