%nproc=1
%NoSave
%Mem=1900MB
#P OB98/GEN NMR

erre ene a

0 1
  C        4.380    -806.456     543.877
  O        4.353    -806.800     545.263
  P        3.045    -807.597     545.765
  C        2.292    -805.578     547.202
  O        2.603    -806.960     547.168
  C        2.316    -805.033     548.642
  O        1.126    -805.465     549.369
  C        3.535    -805.500     549.450
  O        3.898    -804.422     550.327
  C        2.965    -806.667     550.243
  O        3.776    -807.052     551.346
  C        1.587    -806.099     550.587
  N       -0.162    -808.614     554.668
  C        0.798    -807.675     554.530
  N        1.215    -807.054     553.400
  C        0.512    -807.486     552.342
  C       -0.500    -808.437     552.328
  C       -0.838    -809.015     553.564
  N       -1.794    -809.988     553.716
  N       -0.966    -808.639     551.034
  C       -0.198    -807.866     550.285
  N        0.650    -807.097     551.036
  O        3.612    -809.043     546.152
  O        1.966    -807.665     544.735
  H        4.059    -806.258     551.836
  H        3.441    -809.680     545.433
  H        1.321    -807.382     555.444
  H       -0.209    -807.831     549.202
  H        1.645    -805.326     551.363
  H        2.876    -807.539     549.587
  H        4.400    -805.765     548.838
  H        2.297    -803.934     548.596
  H        1.302    -805.398     546.772
  H       -1.967    -810.341     554.645
  H       -2.321    -810.326     552.911
  H        3.002    -805.030     546.566
  P        4.724    -803.188     549.730
  C        6.710    -803.509     551.323
  O        5.621    -802.672     550.963
  O        3.579    -802.047     549.705
  O        5.404    -803.404     548.419
  H        3.116    -802.001     550.550
  H        7.286    -803.018     552.110
  H        7.361    -803.686     550.460
  H        6.333    -804.469     551.709
  H        5.287    -805.934     543.657
  H        3.543    -805.829     543.649
  H        4.330    -807.347     543.287

 3  4  5  6  7  8  9  10  11  12  22  25  29  30  31  32 0
 6-311+G(2d,p)
 ****
 33  36  37 0
 6-311+G(2d,p)
 ****
 1  2  13  14  15  16  17  18  19  20  21  23  24  26 0
 3-21G
 ****
 27  28  34  35  38  39  40  41  42  43  44  45  46  47  48 0
 3-21G
 ****


