%nproc=1
%NoSave
%Mem=1900MB
#P OB98/GEN NMR

erre ene a

0 1
  C     -146.191      25.440      23.261
  O     -147.393      25.959      22.725
  H     -146.437      24.737      24.059
  H     -145.585      26.252      23.675
  H     -145.627      24.914      22.485
  P     -147.242      27.006      21.518
  C     -148.719      28.977      22.375
  O     -147.413      28.462      22.172
  C     -148.660      30.483      22.661
  O     -148.115      30.683      23.999
  C     -147.757      31.266      21.694
  O     -148.270      32.605      21.594
  C     -146.436      31.280      22.448
  O     -145.546      32.222      21.896
  C     -146.956      31.535      23.860
  N     -142.712      33.143      26.215
  C     -143.474      33.705      25.253
  N     -144.596      33.222      24.684
  C     -144.932      32.037      25.221
  C     -144.258      31.345      26.217
  C     -143.092      31.943      26.719
  N     -142.311      31.371      27.696
  N     -144.907      30.158      26.506
  C     -145.951      30.136      25.703
  N     -146.002      31.246      24.902
  O     -148.593      26.802      20.685
  O     -146.028      26.836      20.668
  H     -144.848      32.459      22.540
  H     -148.438      26.182      19.947
  H     -143.133      34.670      24.887
  H     -146.690      29.346      25.651
  H     -147.288      32.572      23.991
  H     -145.940      30.307      22.385
  H     -147.701      30.823      20.696
  H     -149.679      30.886      22.668
  H     -149.171      28.455      23.226
  H     -149.325      28.800      21.482
  H     -141.481      31.859      27.991
  H     -142.574      30.470      28.069
  P     -149.249      32.980      20.376
  C     -147.863      34.268      18.568
  O     -148.387      33.030      19.023
  O     -149.532      34.536      20.644
  O     -150.529      32.213      20.311
  H     -150.405      34.775      20.280
  H     -147.320      34.113      17.659
  H     -147.207      34.672      19.311
  H     -148.667      34.952      18.391

 6  7  8  9  10  11  12  13  14  15  25  28  32  33  34  35 0
 6-311+G(2d,p)
 ****
 36  37  40 0
 6-311+G(2d,p)
 ****
 1  2  3  4  5  16  17  18  19  20  21  22  23  24 0
 3-21G
 ****
 26  27  29  30  31  38  39 41  42  43  44  45  46  47  48 0
 3-21G
 ****


