%nproc=1
%NoSave
%Mem=1900MB
#P OB98/GEN NMR

erre ene a

0 1
  C     -743.870    -897.716    1381.062
  O     -743.923    -896.924    1382.229
  H     -744.349    -898.670    1381.267
  H     -742.838    -897.893    1380.763
  H     -744.414    -897.221    1380.249
  P     -743.218    -895.480    1382.224
  C     -740.876    -896.051    1383.175
  O     -742.146    -895.482    1383.430
  C     -740.343    -896.731    1384.433
  O     -740.246    -895.722    1385.468
  C     -741.255    -897.851    1384.957
  O     -740.594    -899.101    1385.124
  C     -741.944    -897.221    1386.144
  O     -742.391    -898.140    1387.124
  C     -740.899    -896.223    1386.641
  N     -741.490    -895.100    1387.405
  C     -741.911    -895.363    1388.715
  O     -741.810    -896.446    1389.284
  N     -742.462    -894.300    1389.408
  C     -742.623    -893.050    1388.891
  O     -743.128    -892.127    1389.549
  C     -742.190    -892.826    1387.514
  C     -741.654    -893.852    1386.837
  O     -744.163    -894.326    1382.212
  O     -742.299    -895.490    1380.920
  H     -742.831    -897.620    1387.840
  H     -742.705    -894.968    1380.220
  H     -742.737    -894.496    1390.336
  H     -742.333    -891.834    1387.094
  H     -741.315    -893.733    1385.823
  H     -740.172    -896.705    1387.294
  H     -742.843    -896.682    1385.803
  H     -742.027    -898.099    1384.181
  H     -739.341    -897.109    1384.239
  H     -740.209    -895.246    1382.857
  H     -740.970    -896.784    1382.356
  P     -740.573    -900.297    1384.076
  C     -741.334    -902.451    1385.432
  O     -740.290    -901.663    1384.856
  O     -739.803    -900.064    1382.834
  O     -742.139    -900.469    1383.662
  H     -742.135    -900.773    1382.729
  H     -740.912    -903.315    1385.900
  H     -742.014    -902.757    1384.665
  H     -741.858    -901.870    1386.162

 6  7  8  9  10  11  12  13  14  15  16  26  31  32  33  34  35 0
 6-311+G(2d,p)
 ****
 36  37 0
 6-311+G(2d,p)
 ****
 1  2  3  4  5  17  18  19  20  21  22  23  24  25 0
 3-21G
 ****
 27  28  29  30  38  39  40  41  42  43  44  45 0
 3-21G
 ****


