%nproc=1
%NoSave
%Mem=1900MB
#P OB98/GEN NMR

erre ene a

0 1
  C     1526.514      -8.943     581.933
  O     1525.719      -9.160     583.082
  H     1525.854      -8.852     581.067
  H     1527.185      -9.789     581.783
  H     1527.098      -8.019     582.030
  P     1526.472      -9.109     584.498
  C     1525.605     -11.107     585.916
  O     1525.460      -9.732     585.585
  C     1524.907     -11.403     587.255
  O     1525.538     -10.654     588.321
  C     1523.426     -11.038     587.290
  O     1522.625     -12.050     586.710
  C     1523.204     -10.938     588.785
  O     1523.102     -12.249     589.339
  C     1524.488     -10.244     589.260
  N     1522.542      -6.246     591.675
  C     1522.376      -7.595     591.910
  N     1521.555      -7.928     592.940
  N     1522.920      -8.551     591.204
  C     1523.717      -8.064     590.211
  C     1523.972      -6.747     589.873
  C     1523.336      -5.718     590.658
  O     1523.467      -4.511     590.522
  N     1524.827      -6.656     588.804
  C     1525.069      -7.906     588.474
  N     1524.429      -8.792     589.306
  O     1526.488      -7.540     584.859
  O     1527.857      -9.680     584.501
  H     1522.254     -12.632     589.006
  H     1527.329      -7.334     585.325
  H     1522.059      -5.554     592.235
  H     1525.711      -8.224     587.666
  H     1524.820     -10.588     590.252
  H     1522.287     -10.405     589.043
  H     1521.050      -7.256     593.489
  H     1523.244     -10.049     586.821
  H     1521.444      -8.920     593.158
  H     1525.051     -12.468     587.464
  H     1526.665     -11.347     586.003
  H     1525.152     -11.712     585.125
  P     1521.902     -11.726     585.300
  C     1519.663     -12.621     586.295
  O     1520.631     -12.682     585.228
  O     1522.920     -12.360     584.230
  O     1521.653     -10.272     585.038
  H     1522.804     -11.938     583.362
  H     1518.875     -13.318     586.102
  H     1519.258     -11.632     586.353
  H     1520.138     -12.867     587.222

 6  7  8  9  10  11  12  13  14  15  26  29  33  34 0
 6-311+G(2d,p)
 ****
 36  38  39  40  41 0
 6-311+G(2d,p)
 ****
 1  2  3  4  5  16  17  18  19  20  21  22  23  24  25 0
 3-21G
 ****
 27  28  30  31  32  35  37  42  43  44  45  46  47 0
 3-21G
 ****
 48  49 0
 3-21G
 ****


