%nproc=1
%NoSave
%Mem=1900MB
#P OB98/GEN NMR

erre ene a

0 1
  C     -407.544     -34.689     249.524
  O     -406.373     -35.303     250.050
  P     -405.059     -35.310     249.136
  C     -403.563     -34.180     250.925
  O     -403.802     -35.344     250.138
  C     -402.104     -34.128     251.379
  O     -401.917     -35.085     252.464
  C     -401.083     -34.462     250.287
  O     -399.989     -33.533     250.362
  C     -400.556     -35.830     250.696
  O     -399.248     -36.065     250.188
  C     -400.643     -35.719     252.217
  N     -397.514     -38.784     254.735
  C     -397.350     -37.461     254.368
  N     -396.156     -36.898     254.668
  N     -398.267     -36.760     253.754
  C     -399.422     -37.441     253.549
  C     -399.705     -38.747     253.879
  C     -398.660     -39.533     254.499
  O     -398.710     -40.732     254.762
  N     -400.995     -39.081     253.525
  C     -401.484     -37.978     252.981
  N     -400.551     -36.971     252.931
  O     -405.029     -33.820     248.544
  O     -405.043     -36.323     248.039
  H     -398.619     -35.596     250.769
  H     -405.007     -33.850     247.564
  H     -396.768     -39.285     255.185
  H     -402.485     -37.869     252.587
  H     -399.853     -35.059     252.597
  H     -401.229     -36.601     250.304
  H     -395.416     -37.372     255.164
  H     -401.494     -34.461     249.267
  H     -396.021     -35.922     254.425
  H     -401.910     -33.132     251.801
  H     -404.220     -34.204     251.803
  H     -403.803     -33.293     250.321
  P     -399.754     -32.607     249.065
  C     -399.975     -30.315     250.283
  O     -399.136     -31.237     249.609
  O     -401.251     -32.205     248.629
  O     -399.010     -33.285     247.960
  H     -401.281     -31.985     247.680
  H     -400.971     -30.737     250.493
  H     -400.100     -29.430     249.655
  H     -399.501     -30.028     251.220
  H     -408.336     -34.760     250.240
  H     -407.833     -35.187     248.622
  H     -407.343     -33.659     249.315

 3  4  5  6  7  8  9  10  11  12  23  26  30  31  33  0
 6-311+G(2d,p)
 ****
 35  36  37  38 0
 6-311+G(2d,p)
 ****
 1  2  13  14  15  16  17  18  19  20  21  22  24  25  27  28  29 0
 3-21G
 ****
 32  34  39  40  41  42  43  44  45  46  47  48  49 0
 3-21G
 ****


