%nproc=1
%NoSave
%Mem=1900MB
#P OB98/GEN NMR

erre ene a

0 1
  C     -356.876    -433.036    -185.527
  O     -356.414    -431.697    -185.544
  H     -357.441    -433.199    -184.603
  H     -356.030    -433.725    -185.548
  H     -357.534    -433.226    -186.383
  P     -355.712    -431.197    -186.899
  C     -353.948    -429.369    -186.211
  O     -355.265    -429.666    -186.657
  C     -353.695    -427.862    -186.306
  O     -353.660    -427.415    -187.664
  C     -354.786    -427.008    -185.672
  O     -354.777    -427.076    -184.260
  C     -354.419    -425.643    -186.219
  O     -353.335    -425.059    -185.497
  C     -353.987    -426.001    -187.677
  N     -355.010    -425.672    -188.661
  C     -355.281    -424.308    -188.802
  O     -354.681    -423.470    -188.141
  N     -356.272    -423.937    -189.698
  C     -356.890    -424.836    -190.390
  N     -357.858    -424.395    -191.245
  C     -356.614    -426.286    -190.282
  C     -355.674    -426.619    -189.393
  O     -356.941    -431.048    -187.895
  O     -354.605    -432.059    -187.394
  H     -353.622    -424.994    -184.562
  H     -357.669    -430.503    -187.557
  H     -357.152    -427.005    -190.887
  H     -355.416    -427.661    -189.255
  H     -353.063    -425.460    -187.939
  H     -355.261    -424.944    -186.163
  H     -355.764    -427.291    -186.075
  H     -352.713    -427.655    -185.857
  H     -358.032    -423.397    -191.282
  H     -353.200    -429.922    -186.791
  H     -358.440    -425.007    -191.806
  H     -353.871    -429.698    -185.170
  P     -356.126    -427.422    -183.453
  C     -355.547    -425.466    -181.867
  O     -355.925    -426.844    -181.967
  O     -356.561    -428.853    -183.518
  O     -357.203    -426.406    -184.065
  H     -356.974    -425.451    -183.967
  H     -355.444    -425.198    -180.836
  H     -356.300    -424.856    -182.320
  H     -354.615    -425.314    -182.370

 6  7  8  9  10  11  12  13  14  15  16  26  30  31  32  33  35 0
 6-311+G(2d,p)
 ****
 37  38 0
 6-311+G(2d,p)
 ****
 1  2  3  4  5  17  18  19  20  21  22  23  24  25 0
 3-21G
 ****
 27  28  29  34  36  39  40  41  42  43  44  45  46 0
 3-21G
 ****


