%nproc=1
%NoSave
%Mem=1900MB
#P OB98/GEN NMR

erre ene a

0 1
  C     -141.668    -291.689    -550.844
  O     -141.741    -290.313    -550.539
  H     -142.681    -292.063    -551.023
  H     -141.229    -292.240    -550.013
  H     -141.071    -291.843    -551.752
  P     -140.393    -289.526    -550.174
  C     -139.259    -288.679    -548.013
  O     -140.412    -289.280    -548.587
  C     -139.339    -288.740    -546.485
  O     -140.543    -288.069    -546.067
  C     -139.379    -290.185    -545.954
  O     -138.383    -290.439    -544.964
  C     -140.842    -290.374    -545.568
  O     -141.065    -291.334    -544.558
  C     -141.287    -288.949    -545.199
  N     -142.726    -288.732    -545.341
  C     -143.420    -288.298    -544.214
  O     -142.920    -288.071    -543.116
  N     -144.775    -288.106    -544.393
  C     -145.471    -288.321    -545.541
  O     -146.680    -288.129    -545.633
  C     -144.687    -288.797    -546.683
  C     -143.374    -288.987    -546.539
  O     -140.109    -288.306    -550.988
  O     -139.238    -290.625    -550.353
  H     -140.576    -291.040    -543.764
  H     -138.745    -290.453    -551.172
  H     -145.280    -287.778    -543.589
  H     -145.216    -288.994    -547.614
  H     -142.761    -289.343    -547.365
  H     -141.016    -288.716    -544.165
  H     -141.400    -290.705    -546.465
  H     -139.129    -290.900    -546.753
  H     -138.486    -288.180    -546.059
  H     -139.218    -287.635    -548.349
  H     -138.362    -289.199    -548.364
  P     -137.136    -291.423    -545.146
  C     -136.670    -293.998    -544.821
  O     -137.602    -292.918    -544.802
  O     -135.848    -290.966    -544.535
  O     -136.920    -291.464    -546.748
  H     -135.957    -291.586    -546.887
  H     -137.173    -294.907    -544.566
  H     -135.891    -293.810    -544.112
  H     -136.247    -294.087    -545.800

 6  7  8  9  10  11  12  13  14  15  16  26  31  32  33  34  35 0
 6-311+G(2d,p)
 ****
 36  37 0
 6-311+G(2d,p)
 ****
 1  2  3  4  5  17  18  19  20  21  22  23  24  25 0
 3-21G
 ****
 27  28  29  30  38  39  40  41  42  43  44  45 0
 3-21G
 ****


