%nproc=1
%NoSave
%Mem=1900MB
#P OB98/GEN NMR

erre ene a

0 1
  C      -28.031    -144.864    -157.169
  O      -27.043    -145.781    -157.593
  H      -28.267    -144.199    -158.005
  H      -27.659    -144.260    -156.338
  H      -28.943    -145.389    -156.874
  P      -26.515    -146.874    -156.542
  C      -24.134    -146.029    -157.117
  O      -25.072    -146.322    -156.093
  C      -23.386    -144.738    -156.792
  O      -24.231    -143.581    -156.980
  C      -22.899    -144.623    -155.351
  O      -21.783    -145.446    -155.058
  C      -22.555    -143.145    -155.309
  O      -21.315    -142.917    -156.001
  C      -23.751    -142.541    -156.083
  N      -24.825    -142.089    -155.199
  C      -24.461    -141.217    -154.168
  O      -23.291    -140.866    -154.024
  N      -25.432    -140.784    -153.294
  C      -26.653    -141.204    -153.427
  N      -27.572    -140.749    -152.530
  C      -27.075    -142.141    -154.487
  C      -26.122    -142.535    -155.328
  O      -26.544    -148.296    -157.005
  O      -27.384    -146.615    -155.222
  H      -20.637    -143.459    -155.555
  H      -27.103    -147.276    -154.542
  H      -28.097    -142.484    -154.535
  H      -26.353    -143.231    -156.130
  H      -23.427    -141.698    -156.707
  H      -22.436    -142.760    -154.295
  H      -23.718    -144.809    -154.646
  H      -22.556    -144.651    -157.507
  H      -27.251    -140.109    -151.815
  H      -24.677    -145.940    -158.063
  H      -28.526    -141.083    -152.511
  H      -23.404    -146.838    -157.200
  P      -22.029    -146.671    -154.046
  C      -21.260    -144.975    -152.218
  O      -22.134    -146.030    -152.581
  O      -20.624    -147.427    -154.043
  O      -23.170    -147.573    -154.405
  H      -20.645    -148.199    -154.642
  H      -21.467    -144.670    -151.214
  H      -21.406    -144.147    -152.880
  H      -20.247    -145.312    -152.287

 6  7  8  9  10  11  12  13  14  15  16  26  30  31  32  33  35 0
 6-311+G(2d,p)
 ****
 37  38 0
 6-311+G(2d,p)
 ****
 1  2  3  4  5  17  18  19  20  21  22  23  24  25 0
 3-21G
 ****
 27  28  29  34  36  39  40  41  42  43  44  45  46 0
 3-21G
 ****


