%nproc=1
%NoSave
%Mem=1900MB
#P OB98/GEN NMR

erre ene a

0 1
  C     -141.178      34.472    -335.436
  O     -142.534      34.860    -335.371
  H     -140.603      35.291    -335.877
  H     -141.069      33.588    -336.068
  H     -140.784      34.267    -334.438
  P     -143.574      33.906    -334.608
  C     -145.006      35.411    -333.083
  O     -143.860      34.574    -333.179
  C     -144.716      36.582    -332.147
  O     -143.554      37.309    -332.611
  C     -145.839      37.611    -332.080
  O     -146.924      37.144    -331.302
  C     -145.097      38.805    -331.507
  O     -144.980      38.708    -330.082
  C     -143.712      38.681    -332.178
  N     -143.561      39.608    -333.300
  C     -142.296      40.159    -333.474
  O     -141.333      39.897    -332.752
  N     -142.181      41.081    -334.479
  C     -143.217      41.590    -335.211
  O     -143.111      42.584    -335.922
  C     -144.515      40.927    -335.027
  C     -144.629      39.989    -334.086
  O     -143.216      32.458    -334.574
  O     -144.950      34.149    -335.396
  H     -145.109      33.399    -336.000
  H     -145.893      38.785    -329.734
  H     -141.276      41.517    -334.585
  H     -145.347      41.254    -335.642
  H     -145.587      39.507    -333.909
  H     -142.916      38.877    -331.452
  H     -145.611      39.740    -331.736
  H     -146.177      37.854    -333.092
  H     -144.492      36.181    -331.150
  H     -145.839      34.822    -332.683
  H     -145.270      35.771    -334.084
  P     -148.426      37.299    -331.835
  C     -149.204      34.989    -331.020
  O     -149.004      35.836    -332.148
  O     -148.612      38.293    -332.934
  O     -149.256      37.732    -330.534
  H     -149.793      38.520    -330.751
  H     -149.589      34.046    -331.346
  H     -149.901      35.447    -330.350
  H     -148.272      34.839    -330.517

 6  7  8  9  10  11  12  13  14  15  16  27  31  32  33  34  35 0
 6-311+G(2d,p)
 ****
 36  37 0
 6-311+G(2d,p)
 ****
 1  2  3  4  5  17  18  19  20  21  22  23  24  25 0
 3-21G
 ****
 26  28  29  30  38  39  40  41  42  43  44  45 0
 3-21G
 ****


