%nproc=1
%NoSave
%Mem=1900MB
#P OB98/GEN NMR

erre ene a

0 1
  C     -345.552     -59.634    -582.251
  O     -344.969     -60.457    -581.259
  H     -346.624     -59.842    -582.294
  H     -345.113     -59.852    -583.231
  H     -345.409     -58.581    -582.000
  P     -343.383     -60.329    -581.061
  C     -343.300     -62.864    -581.571
  O     -342.779     -61.576    -581.871
  C     -342.631     -63.928    -582.446
  O     -343.276     -63.993    -583.724
  C     -341.156     -63.672    -582.720
  O     -340.359     -64.144    -581.643
  C     -340.946     -64.513    -583.970
  O     -340.764     -65.896    -583.601
  C     -342.280     -64.347    -584.719
  N     -345.181     -61.715    -588.039
  C     -345.461     -62.780    -587.254
  N     -344.627     -63.461    -586.438
  C     -343.389     -62.939    -586.475
  C     -342.957     -61.858    -587.229
  C     -343.916     -61.231    -588.041
  N     -343.631     -60.146    -588.843
  N     -341.621     -61.611    -587.013
  C     -341.266     -62.484    -586.095
  N     -342.289     -63.339    -585.763
  O     -342.918     -60.168    -579.654
  O     -343.053     -59.095    -582.032
  H     -339.861     -65.970    -583.237
  H     -343.570     -59.164    -582.856
  H     -346.486     -63.132    -587.284
  H     -340.284     -62.536    -585.625
  H     -342.599     -65.283    -585.191
  H     -340.061     -64.219    -584.535
  H     -340.958     -62.624    -582.956
  H     -342.772     -64.903    -581.954
  H     -344.383     -62.884    -581.735
  H     -344.323     -59.885    -589.530
  H     -342.664     -59.870    -588.936
  H     -343.107     -63.065    -580.514
  P     -338.767     -63.950    -581.643
  C     -338.369     -66.392    -580.937
  O     -338.171     -65.404    -581.947
  O     -338.227     -63.267    -580.432
  O     -338.467     -63.147    -582.994
  H     -337.573     -62.753    -582.962
  H     -337.930     -67.316    -581.251
  H     -339.417     -66.532    -580.775
  H     -337.908     -66.069    -580.027

 6  7  8  9  10  11  12  13  14  15  25  28  32  33  34  35 0
 6-311+G(2d,p)
 ****
 36  39  40 0
 6-311+G(2d,p)
 ****
 1  2  3  4  5  16  17  18  19  20  21  22  23  24 0
 3-21G
 ****
 26  27  29  30  31  37  38  41  42  43  44  45  46  47 0
 3-21G
 ****
 48 0
 3-21G
 ****


