%nproc=1
%NoSave
%Mem=1900MB
#P OB98/GEN NMR

erre ene a

0 1
  C     -183.823     166.368    -236.984
  O     -183.240     165.162    -237.432
  H     -184.836     166.439    -237.389
  H     -183.242     167.227    -237.328
  H     -183.882     166.368    -235.887
  P     -181.729     164.880    -236.970
  C     -180.638     165.954    -239.046
  O     -180.880     166.065    -237.649
  C     -180.443     167.337    -239.669
  O     -179.859     168.212    -238.675
  C     -179.517     167.332    -240.893
  O     -180.014     168.250    -241.862
  C     -178.194     167.835    -240.338
  O     -177.385     168.447    -241.337
  C     -178.668     168.791    -239.238
  N     -173.903     170.398    -238.360
  C     -174.695     170.473    -239.452
  N     -175.966     170.026    -239.592
  C     -176.417     169.504    -238.442
  C     -175.723     169.350    -237.250
  C     -174.402     169.825    -237.238
  N     -173.578     169.730    -236.135
  N     -176.519     168.728    -236.306
  C     -177.670     168.517    -236.912
  N     -177.653     168.951    -238.209
  O     -181.223     163.502    -237.227
  O     -181.772     165.322    -235.436
  H     -176.528     168.699    -240.929
  H     -182.259     166.158    -235.317
  H     -174.252     170.940    -240.328
  H     -178.536     168.041    -236.465
  H     -178.906     169.790    -239.617
  H     -177.635     166.995    -239.909
  H     -179.419     166.338    -241.338
  H     -181.430     167.751    -239.920
  H     -181.475     165.443    -239.534
  H     -172.642     170.107    -236.211
  H     -173.930     169.324    -235.287
  H     -179.735     165.344    -239.185
  P     -180.838     167.674    -243.109
  C     -178.964     168.236    -244.804
  O     -179.797     167.220    -244.244
  O     -181.978     168.517    -243.590
  O     -181.371     166.263    -242.551
  H     -182.267     166.106    -242.894
  H     -178.322     167.804    -245.543
  H     -178.371     168.678    -244.030
  H     -179.575     168.988    -245.258

 6  7  8  9  10  11  12  13  14  15  25  28  32  33  34  35 0
 6-311+G(2d,p)
 ****
 36  39  40 0
 6-311+G(2d,p)
 ****
 1  2  3  4  5  16  17  18  19  20  21  22  23  24 0
 3-21G
 ****
 26  27  29  30  31  37  38  41  42  43  44  45  46  47 0
 3-21G
 ****
 48 0
 3-21G
 ****


