%nproc=1
%NoSave
%Mem=1900MB
#P OB98/GEN NMR

erre ene a

0 1
  C     -224.193      69.994     -90.450
  O     -224.566      70.813     -89.361
  H     -223.251      70.367     -90.863
  H     -224.957      70.040     -91.229
  H     -224.048      68.959     -90.133
  P     -225.760      70.334     -88.407
  C     -227.548      70.523     -90.256
  O     -227.104      70.989     -88.991
  C     -228.720      71.366     -90.765
  O     -229.941      70.914     -90.099
  C     -228.577      72.877     -90.478
  O     -229.228      73.576     -91.549
  C     -229.363      73.005     -89.187
  O     -229.653      74.343     -88.880
  C     -230.543      72.082     -89.505
  N     -231.342      71.734     -88.337
  C     -232.720      71.893     -88.434
  O     -233.295      72.285     -89.447
  N     -233.435      71.592     -87.306
  C     -232.916      71.164     -86.118
  O     -233.602      70.887     -85.143
  C     -231.449      71.043     -86.069
  C     -230.740      71.327     -87.164
  O     -225.545      70.536     -86.945
  O     -225.934      68.783     -88.769
  H     -225.460      68.241     -88.111
  H     -229.979      74.420     -87.957
  H     -234.435      71.701     -87.358
  H     -231.004      70.725     -85.136
  H     -229.658      71.251     -87.162
  H     -231.193      72.531     -90.264
  H     -228.779      72.610     -88.348
  H     -227.537      73.200     -90.407
  H     -228.857      71.179     -91.836
  H     -227.864      69.481     -90.147
  H     -226.718      70.571     -90.971
  P     -228.432      74.416     -92.662
  C     -228.756      76.874     -91.952
  O     -229.138      75.845     -92.855
  O     -228.237      73.673     -93.946
  O     -227.018      74.773     -92.000
  H     -226.328      74.754     -92.688
  H     -229.293      77.770     -92.184
  H     -227.705      77.055     -92.042
  H     -228.982      76.572     -90.951

 6  7  8  9  10  11  12  13  14  15  16  27  31  32  33  34  35 0
 6-311+G(2d,p)
 ****
 36  37 0
 6-311+G(2d,p)
 ****
 1  2  3  4  5  17  18  19  20  21  22  23  24  25 0
 3-21G
 ****
 26  28  29  30  38  39  40  41  42  43  44  45 0
 3-21G
 ****


