%nproc=1
%NoSave
%Mem=1900MB
#P OB98/GEN NMR

erre ene a

0 1
  C      443.783    -489.352    -580.062
  O      445.189    -489.154    -580.097
  P      445.707    -487.638    -580.207
  C      446.526    -487.763    -577.728
  O      445.764    -487.074    -578.709
  C      447.934    -487.173    -577.663
  O      448.521    -487.133    -578.989
  C      447.994    -485.752    -577.125
  O      447.970    -485.752    -575.711
  C      449.322    -485.260    -577.714
  O      450.434    -485.718    -576.924
  C      449.321    -485.919    -579.102
  N      450.497    -483.242    -583.223
  C      451.320    -483.838    -582.285
  N      452.652    -483.751    -582.506
  N      450.880    -484.473    -581.230
  C      449.528    -484.473    -581.132
  C      448.608    -483.907    -581.983
  C      449.111    -483.253    -583.172
  O      448.423    -482.793    -584.083
  N      447.325    -484.087    -581.543
  C      447.471    -484.800    -580.441
  N      448.785    -485.076    -580.156
  O      444.458    -486.875    -580.862
  O      446.968    -487.454    -580.983
  H      451.231    -485.213    -577.172
  H      444.597    -486.762    -581.825
  H      450.888    -482.778    -584.022
  H      446.661    -485.153    -579.821
  H      450.324    -486.222    -579.412
  H      449.380    -484.164    -577.733
  H      453.060    -483.256    -583.284
  H      447.168    -485.150    -577.530
  H      453.265    -484.177    -581.826
  H      448.553    -487.846    -577.052
  H      446.586    -488.817    -577.992
  H      446.028    -487.670    -576.758
  P      447.394    -484.448    -574.975
  C      444.981    -485.241    -574.414
  O      445.809    -484.421    -575.226
  O      447.936    -483.241    -575.883
  O      447.820    -484.297    -573.550
  H      448.159    -482.478    -575.312
  H      444.001    -484.761    -574.320
  H      445.406    -485.383    -573.415
  H      444.856    -486.208    -574.893
  H      443.572    -490.398    -579.988
  H      443.346    -488.962    -580.957
  H      443.372    -488.845    -579.214

 3  4  5  6  7  8  9  10  11  12  23  26  30  31 0
 6-311+G(2d,p)
 ****
 33  35  36  37  38 0
 6-311+G(2d,p)
 ****
 1  2  13  14  15  16  17  18  19  20  21  22  24  25 0
 3-21G
 ****
 27  28  29  32  34  39  40  41  42  43  44  45  46  47  48  49 0
 3-21G
 ****


