%nproc=1
%NoSave
%Mem=1900MB
#P OB98/GEN NMR

erre ene a

0 1
  C      693.282     770.092     598.359
  O      694.437     769.299     598.588
  P      694.251     767.942     599.431
  C      694.140     768.991     601.803
  O      694.901     768.232     600.870
  C      694.980     769.334     603.025
  O      695.238     768.148     603.792
  C      696.354     769.921     602.700
  O      696.293     771.297     602.390
  C      697.089     769.680     604.016
  O      696.759     770.720     604.948
  C      696.499     768.331     604.483
  N      700.297     765.453     606.192
  C      699.676     766.534     606.783
  N      700.109     766.883     608.009
  N      698.715     767.216     606.211
  C      698.357     766.732     605.001
  C      698.904     765.668     604.311
  C      700.000     764.950     604.931
  O      700.627     764.027     604.429
  N      698.260     765.474     603.118
  C      697.311     766.380     603.096
  N      697.349     767.192     604.201
  O      695.292     766.945     598.743
  O      692.868     767.382     599.432
  H      695.789     770.709     605.060
  H      695.007     766.017     598.885
  H      701.014     764.946     606.684
  H      696.579     766.491     602.310
  H      696.274     768.351     605.558
  H      698.180     769.678     603.906
  H      700.745     766.317     608.547
  H      696.847     769.346     601.904
  H      699.636     767.649     608.475
  H      694.411     770.034     603.648
  H      693.275     768.405     602.124
  H      693.784     769.899     601.313
  P      696.345     771.692     600.833
  C      698.906     771.270     600.729
  O      697.846     772.192     600.580
  O      695.466     773.024     600.767
  O      695.829     770.626     599.918
  H      695.089     773.136     599.875
  H      698.617     770.270     600.387
  H      699.201     771.228     601.779
  H      699.754     771.610     600.132
  H      693.551     770.957     597.790
  H      692.867     770.397     599.297
  H      692.558     769.520     597.817

 3  4  5  6  7  8  9  10  11  12  23  26  30  31  33  0
 6-311+G(2d,p)
 ****
 35  36  37  38 0
 6-311+G(2d,p)
 ****
 1  2  13  14  15  16  17  18  19  20  21  22  24  25  27  28  29 0
 3-21G
 ****
 32  34  39  40  41  42  43  44  45  46  47  48  49 0
 3-21G
 ****


