%nproc=1
%NoSave
%Mem=1900MB
#P OB98/GEN NMR

erre ene a

0 1
  C      166.205     295.364     634.881
  O      167.396     295.260     635.648
  P      167.919     293.785     636.016
  C      169.400     293.952     633.886
  O      169.333     293.636     635.273
  C      170.638     294.793     633.584
  O      170.527     296.082     634.230
  C      171.948     294.193     634.084
  O      172.457     293.218     633.197
  C      172.834     295.424     634.093
  O      173.292     295.709     632.759
  C      171.877     296.520     634.567
  N      173.439     299.808     638.156
  C      173.578     299.806     636.811
  N      173.142     298.888     635.922
  C      172.539     297.866     636.558
  C      172.356     297.710     637.923
  C      172.829     298.751     638.743
  N      172.663     298.765     640.110
  N      171.699     296.535     638.197
  C      171.469     295.993     637.017
  N      171.954     296.763     635.997
  O      166.951     292.839     635.158
  O      167.896     293.447     637.467
  H      173.762     296.563     632.797
  H      166.918     291.947     635.559
  H      174.098     300.665     636.393
  H      170.959     295.056     636.856
  H      172.036     297.469     634.059
  H      173.730     295.295     634.714
  H      171.840     293.808     635.102
  H      170.673     294.961     632.498
  H      168.505     294.521     633.606
  H      172.863     299.619     640.599
  H      172.036     298.080     640.517
  H      169.420     293.023     633.312
  P      173.593     292.238     633.772
  C      172.057     290.776     635.272
  O      172.843     290.860     634.097
  O      173.914     292.858     635.211
  O      174.810     292.145     632.907
  H      174.818     292.634     635.488
  H      171.385     289.919     635.181
  H      171.451     291.675     635.412
  H      172.703     290.632     636.136
  H      165.978     296.396     634.713
  H      165.398     294.903     635.411
  H      166.342     294.871     633.941

 3  4  5  6  7  8  9  10  11  12  22  25  29  30  31  32 0
 6-311+G(2d,p)
 ****
 33  36  37 0
 6-311+G(2d,p)
 ****
 1  2  13  14  15  16  17  18  19  20  21  23  24  26 0
 3-21G
 ****
 27  28  34  35  38  39  40  41  42  43  44  45  46  47  48 0
 3-21G
 ****


