%nproc=1
%NoSave
%Mem=1900MB
#P OB98/GEN NMR

erre ene a

0 1
  C      -93.367     -55.126     -12.355
  O      -92.013     -54.739     -12.252
  H      -93.507     -55.667     -13.295
  H      -94.007     -54.240     -12.363
  H      -93.645     -55.781     -11.524
  P      -91.568     -54.005     -10.897
  C      -91.671     -51.766     -12.206
  O      -92.051     -52.474     -11.033
  C      -92.670     -50.647     -12.505
  O      -92.380     -49.512     -11.632
  C      -92.631     -50.137     -13.956
  O      -93.970     -49.781     -14.337
  C      -91.817     -48.854     -13.840
  O      -92.050     -47.962     -14.928
  C      -92.303     -48.347     -12.483
  N      -91.344     -45.661      -8.334
  C      -92.283     -46.649      -8.567
  N      -93.092     -46.970      -7.536
  N      -92.416     -47.268      -9.713
  C      -91.514     -46.865     -10.647
  C      -90.544     -45.901     -10.544
  C      -90.425     -45.203      -9.278
  O      -89.624     -44.308      -9.019
  N      -89.853     -45.766     -11.723
  C      -90.406     -46.649     -12.533
  N      -91.417     -47.343     -11.925
  O      -89.977     -53.914     -11.048
  O      -91.973     -54.691      -9.634
  H      -91.542     -48.295     -15.699
  H      -89.553     -54.680     -10.618
  H      -91.291     -45.208      -7.438
  H      -90.118     -46.825     -13.562
  H      -93.300     -47.892     -12.540
  H      -90.745     -49.090     -13.814
  H      -93.017     -46.574      -6.612
  H      -92.216     -50.849     -14.674
  H      -93.760     -47.723      -7.675
  H      -93.677     -50.991     -12.237
  H      -91.650     -52.462     -13.051
  H      -90.669     -51.342     -12.063
  P      -94.864     -50.893     -15.069
  C      -93.862     -50.112     -17.338
  O      -94.198     -51.204     -16.493
  O      -96.187     -50.081     -15.460
  O      -95.174     -52.084     -14.221
  H      -96.946     -50.692     -15.504
  H      -93.430     -50.482     -18.244
  H      -93.158     -49.479     -16.840
  H      -94.745     -49.553     -17.566

 6  7  8  9  10  11  12  13  14  15  26  29  33  34 0
 6-311+G(2d,p)
 ****
 36  38  39  40  41 0
 6-311+G(2d,p)
 ****
 1  2  3  4  5  16  17  18  19  20  21  22  23  24  25 0
 3-21G
 ****
 27  28  30  31  32  35  37  42  43  44  45  46  47 0
 3-21G
 ****
 48  49 0
 3-21G
 ****


