%nproc=1
%NoSave
%Mem=1900MB
#P OB98/GEN NMR

erre ene a

0 1
  C     -149.988    -746.401      11.026
  O     -150.254    -747.775      10.893
  H     -149.500    -746.197      11.986
  H     -149.320    -746.088      10.218
  H     -150.917    -745.826      10.953
  P     -151.200    -748.445      12.013
  C     -152.564    -749.929      10.379
  O     -151.635    -749.895      11.463
  C     -152.561    -751.317       9.749
  O     -151.338    -751.482       8.978
  C     -152.663    -752.488      10.744
  O     -153.798    -753.301      10.459
  C     -151.406    -753.318      10.491
  O     -151.639    -754.725      10.532
  C     -150.966    -752.858       9.106
  N     -147.319    -756.231       7.914
  C     -148.646    -756.218       7.645
  N     -149.548    -755.237       7.894
  C     -148.944    -754.173       8.461
  C     -147.598    -754.033       8.771
  C     -146.766    -755.136       8.499
  N     -145.430    -755.166       8.806
  N     -147.368    -752.791       9.345
  C     -148.545    -752.220       9.434
  N     -149.535    -753.023       8.926
  O     -152.550    -747.574      11.917
  O     -150.639    -748.436      13.398
  H     -150.816    -755.159      10.233
  H     -152.831    -747.313      12.811
  H     -149.036    -757.115       7.180
  H     -148.747    -751.266       9.878
  H     -151.475    -753.420       8.304
  H     -150.651    -753.062      11.246
  H     -152.703    -752.143      11.788
  H     -153.398    -751.372       9.033
  H     -152.269    -749.190       9.623
  H     -144.940    -756.031       8.683
  H     -145.033    -754.390       9.327
  H     -153.555    -749.675      10.755
  P     -154.679    -753.796      11.727
  C     -156.912    -754.616      10.680
  O     -155.644    -754.967      11.214
  O     -155.679    -752.563      11.970
  O     -153.854    -754.101      12.935
  H     -155.948    -752.537      12.908
  H     -157.432    -755.503      10.384
  H     -156.777    -753.981       9.829
  H     -157.482    -754.099      11.424

 6  7  8  9  10  11  12  13  14  15  25  28  32  33  34  35 0
 6-311+G(2d,p)
 ****
 36  39  40 0
 6-311+G(2d,p)
 ****
 1  2  3  4  5  16  17  18  19  20  21  22  23  24 0
 3-21G
 ****
 26  27  29  30  31  37  38  41  42  43  44  45  46  47  48 0
 3-21G
 ****


