%nproc=1
%NoSave
%Mem=1900MB
#P OB98/GEN NMR

erre ene a

0 1
  C      -63.860     538.953    -294.570
  O      -64.137     538.089    -293.492
  P      -63.080     537.867    -292.314
  C      -62.909     535.342    -292.756
  O      -63.209     536.349    -291.801
  C      -62.059     534.235    -292.136
  O      -60.717     534.725    -291.905
  C      -62.593     533.685    -290.810
  O      -62.362     532.278    -290.799
  C      -61.727     534.379    -289.779
  O      -61.697     533.681    -288.541
  C      -60.391     534.437    -290.534
  N      -59.495     535.443    -289.983
  C      -58.513     534.981    -289.096
  O      -58.517     533.815    -288.712
  N      -57.561     535.879    -288.655
  C      -57.690     537.142    -288.935
  N      -56.681     537.972    -288.538
  C      -58.851     537.685    -289.658
  C      -59.680     536.794    -290.186
  O      -63.116     538.892    -291.223
  O      -61.655     537.877    -293.053
  H      -61.070     538.529    -292.619
  H      -61.055     534.131    -287.944
  H      -58.981     538.754    -289.760
  H      -60.541     537.091    -290.772
  H      -59.895     533.465    -290.511
  H      -62.107     535.390    -289.593
  H      -63.667     533.871    -290.681
  H      -61.986     533.419    -292.878
  H      -55.894     537.559    -288.067
  H      -62.362     535.808    -293.582
  H      -56.544     538.888    -288.967
  H      -63.842     534.936    -293.177
  P      -63.417     531.331    -290.030
  C      -61.665     530.396    -288.353
  O      -62.593     530.112    -289.383
  O      -64.171     530.610    -291.251
  O      -64.415     532.021    -289.158
  H      -65.058     530.330    -290.961
  H      -61.152     529.471    -288.082
  H      -62.180     530.785    -287.466
  H      -60.914     531.117    -288.695
  H      -64.691     538.960    -295.244
  H      -62.986     538.612    -295.085
  H      -63.693     539.943    -294.200

 3  4  5  6  7  8  9  10  11  12  13  24  27  28  29  30  32 0
 6-311+G(2d,p)
 ****
 34  35 0
 6-311+G(2d,p)
 ****
 1  2  14  15  16  17  18  19  20  21  22  23  25  26 0
 3-21G
 ****
 31  33  36  37  38  39  40  41  42  43  44  45  46 0
 3-21G
 ****


