%nproc=1
%NoSave
%Mem=1900MB
#P OB98/GEN NMR

erre ene a

0 1
  C      -37.419      11.895      -5.796
  O      -36.661      10.765      -5.411
  P      -37.354       9.343      -5.149
  C      -37.469       9.891      -2.637
  O      -38.201       9.512      -3.794
  C      -37.531       8.809      -1.559
  O      -36.766       9.232      -0.397
  C      -38.951       8.467      -1.075
  O      -38.944       7.069      -0.763
  C      -39.072       9.294       0.189
  O      -40.109       8.831       1.048
  C      -37.649       9.184       0.747
  N      -37.352      10.234       1.717
  C      -36.749       9.835       2.914
  O      -36.555       8.636       3.143
  N      -36.424      10.788       3.842
  C      -36.775      12.021       3.643
  N      -36.420      12.929       4.597
  C      -37.523      12.470       2.451
  C      -37.769      11.530       1.530
  O      -36.428       8.173      -5.167
  O      -38.499       9.268      -6.263
  H      -40.957       9.228       0.752
  H      -38.110       9.044      -7.146
  H      -37.844      13.492       2.353
  H      -38.312      11.762       0.627
  H      -37.498       8.210       1.233
  H      -39.298      10.338      -0.073
  H      -39.730       8.695      -1.810
  H      -37.045       7.907      -1.955
  H      -35.893      12.582       5.388
  H      -37.914      10.808      -2.240
  H      -36.569      13.921       4.498
  H      -36.430      10.112      -2.906
  P      -40.276       6.183      -0.878
  C      -40.575       6.422       1.651
  O      -41.190       6.545       0.382
  O      -40.046       4.721      -1.093
  O      -41.077       6.832      -2.110
  H      -41.762       6.206      -2.416
  H      -41.179       6.954       2.393
  H      -39.567       6.853       1.643
  H      -40.514       5.366       1.929
  H      -36.769      12.736      -5.918
  H      -38.144      12.112      -5.040
  H      -37.917      11.692      -6.721

 3  4  5  6  7  8  9  10  11  12  13  23  27  28  29  30  32 0
 6-311+G(2d,p)
 ****
 34  35 0
 6-311+G(2d,p)
 ****
 1  2  14  15  16  17  18  19  20  21  22  24  25  26 0
 3-21G
 ****
 31  33  36  37  38  39  40  41  42  43  44  45  46 0
 3-21G
 ****


