%nproc=1
%NoSave
%Mem=1900MB
#P OB98/GEN NMR

erre ene a

0 1
  C     -131.597     451.225    -230.470
  O     -130.222     451.545    -230.468
  H     -131.704     450.138    -230.491
  H     -132.076     451.642    -231.358
  H     -132.081     451.612    -229.568
  P     -129.843     453.102    -230.441
  C     -129.031     453.207    -227.981
  O     -130.027     453.590    -228.921
  C     -129.069     454.123    -226.753
  O     -128.885     455.507    -227.189
  C     -130.392     454.059    -225.973
  O     -130.105     454.160    -224.574
  C     -131.120     455.309    -226.420
  O     -132.096     455.732    -225.476
  C     -129.948     456.275    -226.593
  N     -130.144     461.302    -226.664
  C     -129.683     460.438    -225.685
  N     -129.214     460.987    -224.544
  N     -129.696     459.141    -225.815
  C     -130.175     458.724    -227.011
  C     -130.665     459.468    -228.052
  C     -130.664     460.910    -227.890
  O     -131.072     461.732    -228.707
  N     -131.083     458.673    -229.090
  C     -130.854     457.439    -228.670
  N     -130.301     457.414    -227.415
  O     -131.070     453.801    -231.198
  O     -128.522     453.459    -231.060
  H     -132.434     456.608    -225.764
  H     -130.779     454.613    -231.662
  H     -130.119     462.297    -226.509
  H     -131.071     456.533    -229.229
  H     -129.587     456.669    -225.635
  H     -131.625     455.135    -227.382
  H     -129.139     461.983    -224.396
  H     -130.966     453.150    -226.166
  H     -128.862     460.371    -223.822
  H     -128.220     453.888    -226.109
  H     -128.045     453.281    -228.459
  H     -129.199     452.169    -227.671
  P     -130.666     453.004    -223.610
  C     -128.576     451.456    -223.595
  O     -129.935     451.621    -223.990
  O     -132.159     452.791    -224.150
  O     -130.655     453.362    -222.162
  H     -132.791     453.145    -223.497
  H     -128.226     450.496    -223.913
  H     -128.503     451.527    -222.530
  H     -127.978     452.221    -224.045

 6  7  8  9  10  11  12  13  14  15  26  29  33  34 0
 6-311+G(2d,p)
 ****
 36  38  39  40  41 0
 6-311+G(2d,p)
 ****
 1  2  3  4  5  16  17  18  19  20  21  22  23  24  25 0
 3-21G
 ****
 27  28  30  31  32  35  37  42  43  44  45  46  47 0
 3-21G
 ****
 48  49 0
 3-21G
 ****


