%nproc=1
%NoSave
%Mem=1900MB
#P OB98/GEN NMR

erre ene a

0 1
  C      -76.825     -38.203      -2.127
  O      -76.378     -39.554      -2.043
  P      -77.258     -40.600      -1.208
  C      -76.800     -42.964      -2.307
  O      -76.579     -42.044      -1.261
  C      -76.454     -44.381      -1.818
  O      -75.024     -44.582      -1.838
  C      -76.925     -44.658      -0.392
  O      -78.265     -45.116      -0.355
  C      -75.919     -45.691       0.074
  O      -76.242     -46.985      -0.466
  C      -74.616     -45.151      -0.560
  N      -73.846     -44.131       0.186
  C      -73.018     -44.520       1.236
  O      -72.870     -45.682       1.606
  N      -72.329     -43.515       1.862
  C      -72.248     -42.216       1.454
  O      -71.567     -41.371       2.020
  C      -73.023     -41.888       0.253
  C      -73.780     -42.834      -0.306
  O      -78.583     -40.768      -2.085
  O      -77.565     -40.169       0.192
  H      -77.151     -47.195      -0.189
  H      -79.358     -40.432      -1.599
  H      -71.778     -43.768       2.669
  H      -72.952     -40.880      -0.134
  H      -74.360     -42.600      -1.197
  H      -73.922     -45.973      -0.776
  H      -75.939     -45.801       1.156
  H      -76.801     -43.765       0.227
  H      -76.907     -45.104      -2.506
  H      -76.195     -42.714      -3.181
  H      -77.848     -42.918      -2.622
  P      -79.256     -44.588       0.787
  C      -80.977     -44.745      -1.109
  O      -80.735     -44.941       0.270
  O      -79.048     -43.182       1.237
  O      -79.046     -45.640       1.980
  H      -78.398     -45.297       2.636
  H      -81.956     -45.167      -1.357
  H      -80.212     -45.246      -1.708
  H      -80.985     -43.675      -1.336
  H      -76.134     -37.635      -2.714
  H      -76.885     -37.785      -1.144
  H      -77.791     -38.175      -2.586

 3  4  5  6  7  8  9  10  11  12  13  23  28  29  30  31  32 0
 6-311+G(2d,p)
 ****
 33  34 0
 6-311+G(2d,p)
 ****
 1  2  14  15  16  17  18  19  20  21  22  24  25  26  27 0
 3-21G
 ****
 35  36  37  38  39  40  41  42  43  44  45 0
 3-21G
 ****


