%nproc=1
%NoSave
%Mem=1900MB
#P OB98/GEN NMR

erre ene a

0 1
  C     -546.257      27.351    -353.683
  O     -544.936      26.891    -353.470
  H     -546.211      28.318    -354.194
  H     -546.768      27.488    -352.728
  H     -546.818      26.651    -354.310
  P     -544.722      25.418    -352.881
  C     -542.414      25.186    -354.010
  O     -543.141      25.181    -352.785
  C     -540.948      24.863    -353.748
  O     -540.266      26.034    -353.245
  C     -540.733      23.787    -352.688
  O     -541.014      22.498    -353.200
  C     -539.281      24.032    -352.321
  O     -538.399      23.413    -353.261
  C     -539.182      25.573    -352.410
  N     -539.223      26.198    -351.092
  C     -538.030      26.195    -350.371
  O     -536.987      25.704    -350.785
  N     -538.102      26.717    -349.101
  C     -539.247      27.106    -348.465
  O     -539.297      27.334    -347.262
  C     -540.459      27.153    -349.293
  C     -540.397      26.690    -350.550
  O     -545.485      24.330    -353.569
  O     -545.157      25.556    -351.346
  H     -546.053      25.184    -351.231
  H     -537.499      23.526    -352.897
  H     -537.249      26.678    -348.556
  H     -541.368      27.519    -348.846
  H     -541.283      26.682    -351.170
  H     -538.245      25.867    -352.907
  H     -539.046      23.636    -351.331
  H     -541.364      23.998    -351.818
  H     -540.479      24.576    -354.701
  H     -542.494      26.183    -354.460
  H     -542.857      24.457    -354.696
  P     -541.768      21.417    -352.285
  C     -542.817      20.123    -354.241
  O     -541.929      20.062    -353.129
  O     -543.022      21.896    -351.631
  O     -540.679      21.018    -351.182
  H     -541.087      21.079    -350.290
  H     -542.846      19.170    -354.727
  H     -542.474      20.865    -354.931
  H     -543.798      20.380    -353.900

 6  7  8  9  10  11  12  13  14  15  16  27  31  32  33  34  35 0
 6-311+G(2d,p)
 ****
 36  37 0
 6-311+G(2d,p)
 ****
 1  2  3  4  5  17  18  19  20  21  22  23  24  25 0
 3-21G
 ****
 26  28  29  30  38  39  40  41  42  43  44  45 0
 3-21G
 ****


