%nproc=1
%NoSave
%Mem=1900MB
#P OB98/GEN NMR

erre ene a

0 1
  C      376.780     218.616    1055.455
  O      376.397     219.144    1054.207
  H      375.892     218.261    1055.983
  H      377.249     219.405    1056.057
  H      377.476     217.777    1055.349
  P      377.530     219.462    1053.115
  C      377.929     221.880    1053.917
  O      378.485     220.580    1053.766
  C      379.023     222.914    1054.264
  O      379.564     222.578    1055.581
  C      380.199     222.926    1053.267
  O      380.707     224.268    1053.232
  C      381.196     221.993    1053.943
  O      382.500     222.166    1053.417
  C      380.992     222.374    1055.414
  N      381.510     221.369    1056.331
  C      382.344     221.822    1057.341
  O      382.670     223.017    1057.480
  N      382.829     220.883    1058.201
  C      382.622     219.530    1058.091
  O      383.122     218.722    1058.864
  C      381.775     219.100    1056.970
  C      381.261     220.030    1056.153
  O      377.047     219.790    1051.746
  O      378.473     218.162    1053.121
  H      382.718     223.124    1053.397
  H      378.873     218.033    1052.251
  H      383.432     221.200    1058.943
  H      381.595     218.040    1056.866
  H      380.617     219.731    1055.325
  H      381.491     223.330    1055.637
  H      380.908     220.951    1053.782
  H      379.918     222.601    1052.262
  H      378.553     223.905    1054.349
  H      377.183     221.855    1054.723
  H      377.432     222.180    1052.989
  P      380.094     225.400    1052.276
  C      381.858     225.477    1050.388
  O      380.545     225.084    1050.754
  O      380.386     226.794    1052.703
  O      378.517     225.110    1052.261
  H      378.043     225.941    1052.094
  H      382.036     225.216    1049.366
  H      382.567     224.976    1051.013
  H      381.960     226.535    1050.509

 6  7  8  9  10  11  12  13  14  15  16  26  31  32  33  34  35 0
 6-311+G(2d,p)
 ****
 36  37 0
 6-311+G(2d,p)
 ****
 1  2  3  4  5  17  18  19  20  21  22  23  24  25 0
 3-21G
 ****
 27  28  29  30  38  39  40  41  42  43  44  45 0
 3-21G
 ****


