%nproc=1
%NoSave
%Mem=1900MB
#P OB98/GEN NMR

erre ene a

0 1
  C      -41.353      51.143     -35.688
  O      -40.452      51.204     -34.598
  P      -40.981      50.964     -33.105
  C      -40.705      53.501     -32.590
  O      -41.545      52.367     -32.576
  C      -41.193      54.567     -31.600
  O      -40.267      55.679     -31.651
  C      -42.566      55.153     -31.918
  O      -43.071      55.789     -30.742
  C      -42.223      56.200     -32.954
  O      -43.246      57.186     -33.083
  C      -40.853      56.728     -32.461
  N      -39.962      57.061     -33.590
  C      -40.097      58.333     -34.139
  O      -40.855      59.186     -33.681
  N      -39.391      58.563     -35.291
  C      -38.626      57.643     -35.945
  O      -38.260      57.759     -37.108
  C      -38.336      56.411     -35.193
  C      -39.027      56.166     -34.077
  O      -39.625      50.761     -32.278
  O      -41.909      49.808     -32.946
  H      -42.872      57.911     -33.640
  H      -39.434      49.809     -32.171
  H      -39.601      59.433     -35.768
  H      -37.615      55.719     -35.608
  H      -38.872      55.240     -33.529
  H      -40.967      57.627     -31.843
  H      -42.111      55.715     -33.932
  H      -43.289      54.424     -32.296
  H      -41.174      54.157     -30.585
  H      -40.661      53.907     -33.607
  H      -39.678      53.216     -32.327
  P      -44.475      56.563     -30.850
  C      -43.192      58.781     -31.026
  O      -44.169      57.943     -31.610
  O      -45.255      56.684     -29.584
  O      -45.266      55.718     -31.960
  H      -46.221      55.907     -31.897
  H      -42.711      59.365     -31.817
  H      -42.427      58.202     -30.499
  H      -43.677      59.464     -30.324
  H      -40.823      51.327     -36.599
  H      -42.115      51.883     -35.562
  H      -41.801      50.172     -35.726

 3  4  5  6  7  8  9  10  11  12  13  23  28  29  30  31  32 0
 6-311+G(2d,p)
 ****
 33  34 0
 6-311+G(2d,p)
 ****
 1  2  14  15  16  17  18  19  20  21  22  24  25  26  27 0
 3-21G
 ****
 35  36  37  38  39  40  41  42  43  44  45 0
 3-21G
 ****


