%nproc=1
%NoSave
%Mem=1900MB
#P OB98/GEN NMR

erre ene a

0 1
  C      -81.389     206.743     103.230
  O      -81.692     205.688     102.312
  P      -81.260     205.838     100.777
  C      -78.731     205.402     101.030
  O      -79.964     204.929     100.509
  C      -77.728     204.249     101.204
  O      -78.135     203.408     102.317
  C      -77.613     203.362      99.957
  O      -76.263     203.162      99.534
  C      -78.381     202.109     100.341
  O      -77.988     200.967      99.595
  C      -78.184     202.043     101.860
  N      -79.244     201.275     102.519
  C      -79.323     199.924     102.203
  O      -78.606     199.385     101.361
  N      -80.301     199.213     102.847
  C      -81.238     199.730     103.692
  O      -82.123     199.059     104.207
  C      -81.145     201.178     103.939
  C      -80.168     201.871     103.349
  O      -81.172     207.234     100.260
  O      -82.412     205.024     100.004
  H      -77.014     200.865      99.673
  H      -82.620     205.507      99.180
  H      -80.360     198.227     102.642
  H      -81.884     201.625     104.588
  H      -80.086     202.938     103.503
  H      -77.231     201.564     102.111
  H      -79.445     202.280     100.132
  H      -78.093     203.828      99.090
  H      -76.758     204.698     101.447
  H      -78.903     205.871     102.000
  H      -78.338     206.188     100.376
  P      -75.640     203.747      98.181
  C      -74.787     206.192      98.258
  O      -74.534     204.836      98.568
  O      -76.624     204.187      97.151
  O      -74.771     202.518      97.626
  H      -74.871     202.468      96.657
  H      -73.833     206.728      98.234
  H      -75.418     206.633      99.035
  H      -75.275     206.295      97.284
  H      -81.745     206.481     104.204
  H      -81.865     207.645     102.907
  H      -80.330     206.892     103.265

 3  4  5  6  7  8  9  10  11  12  13  23  28  29  30  31  32 0
 6-311+G(2d,p)
 ****
 33  34 0
 6-311+G(2d,p)
 ****
 1  2  14  15  16  17  18  19  20  21  22  24  25  26  27 0
 3-21G
 ****
 35  36  37  38  39  40  41  42  43  44  45 0
 3-21G
 ****


