%nproc=1
%NoSave
%Mem=1900MB
#P OB98/GEN NMR

erre ene a

0 1
  C       57.223     -79.564     260.671
  O       56.935     -79.341     259.305
  H       58.299     -79.736     260.776
  H       56.686     -80.447     261.027
  H       56.943     -78.693     261.266
  P       55.434     -78.884     258.948
  C       54.415     -81.299     258.772
  O       54.488     -80.070     259.475
  C       53.101     -82.019     259.082
  O       53.089     -82.383     260.488
  C       51.853     -81.174     258.809
  O       50.827     -82.029     258.298
  C       51.463     -80.658     260.185
  O       50.079     -80.315     260.251
  C       51.902     -81.821     261.088
  N       52.150     -81.395     262.466
  C       51.571     -82.172     263.478
  O       50.871     -83.145     263.191
  N       51.756     -81.801     264.786
  C       52.406     -80.705     265.059
  N       52.538     -80.383     266.377
  C       52.991     -79.831     264.024
  C       52.834     -80.237     262.763
  O       55.411     -79.054     257.357
  O       55.079     -77.517     259.432
  H       49.893     -79.987     261.162
  H       55.859     -79.860     257.043
  H       53.511     -78.922     264.302
  H       53.241     -79.655     261.937
  H       51.136     -82.607     261.103
  H       52.043     -79.757     260.423
  H       52.028     -80.356     258.110
  H       53.077     -82.959     258.515
  H       52.108     -80.999     267.056
  H       55.259     -81.943     259.046
  H       52.977     -79.532     266.701
  H       54.483     -81.082     257.700
  P       50.877     -82.481     256.762
  C       48.403     -82.445     256.015
  O       49.662     -81.783     255.974
  O       51.018     -83.951     256.523
  O       52.152     -81.685     256.196
  H       52.620     -82.280     255.569
  H       47.685     -81.882     255.456
  H       48.077     -82.529     257.031
  H       48.500     -83.422     255.589

 6  7  8  9  10  11  12  13  14  15  16  26  30  31  32  33  35 0
 6-311+G(2d,p)
 ****
 37  38 0
 6-311+G(2d,p)
 ****
 1  2  3  4  5  17  18  19  20  21  22  23  24  25 0
 3-21G
 ****
 27  28  29  34  36  39  40  41  42  43  44  45  46 0
 3-21G
 ****


