%nproc=1
%NoSave
%Mem=1900MB
#P OB98/GEN NMR

erre ene a

0 1
  C      405.970    -899.316    -451.070
  O      407.109    -898.496    -451.034
  P      407.473    -897.556    -452.285
  C      408.212    -895.746    -450.625
  O      407.438    -896.016    -451.802
  C      408.792    -894.316    -450.584
  O      409.874    -894.176    -451.533
  C      407.748    -893.196    -450.945
  O      408.155    -892.076    -450.133
  C      408.005    -892.946    -452.419
  O      407.486    -891.706    -452.847
  C      409.528    -893.106    -452.487
  N      409.998    -893.426    -453.831
  C      410.828    -892.466    -454.458
  O      411.083    -891.406    -453.864
  N      411.288    -892.716    -455.708
  C      410.893    -893.816    -456.337
  N      411.408    -893.996    -457.587
  C      409.960    -894.776    -455.751
  C      409.568    -894.536    -454.518
  O      406.706    -897.846    -453.534
  O      409.045    -897.826    -452.513
  H      406.505    -891.696    -452.632
  H      409.251    -897.716    -453.473
  H      409.651    -895.636    -456.318
  H      408.904    -895.186    -454.003
  H      410.038    -892.216    -452.116
  H      407.504    -893.746    -452.994
  H      406.715    -893.466    -450.705
  H      409.180    -894.166    -449.587
  H      411.984    -893.276    -457.984
  H      409.035    -896.456    -450.563
  H      411.052    -894.716    -458.212
  H      407.562    -895.896    -449.728
  P      407.486    -891.736    -448.713
  C      409.699    -892.226    -447.531
  O      408.343    -892.576    -447.622
  O      406.020    -891.936    -448.653
  O      407.934    -890.206    -448.399
  H      407.325    -889.846    -447.730
  H      410.134    -892.686    -446.612
  H      409.885    -891.156    -447.491
  H      410.255    -892.646    -448.383
  H      405.895    -899.863    -450.154
  H      406.049    -900.000    -451.889
  H      405.098    -898.709    -451.195

 3  4  5  6  7  8  9  10  11  12  13  23  27  28  29  30  32 0
 6-311+G(2d,p)
 ****
 34  35 0
 6-311+G(2d,p)
 ****
 1  2  14  15  16  17  18  19  20  21  22  24  25  26 0
 3-21G
 ****
 31  33  36  37  38  39  40  41  42  43  44  45  46 0
 3-21G
 ****


