%nproc=1
%NoSave
%Mem=1900MB
#P OB98/GEN NMR

erre ene a

0 1
  C      333.978       5.414    -141.347
  O      335.394       5.204    -141.402
  P      335.947       3.958    -140.544
  C      337.806       3.497    -142.287
  O      337.495       3.751    -140.926
  C      339.320       3.521    -142.510
  O      339.769       4.854    -142.887
  C      340.137       3.092    -141.269
  O      341.297       2.377    -141.763
  C      340.539       4.428    -140.683
  O      341.601       4.349    -139.741
  C      340.836       5.203    -141.968
  N      343.841       9.058    -140.468
  C      344.048       7.716    -140.521
  N      343.189       6.759    -140.935
  C      342.008       7.295    -141.311
  C      341.660       8.637    -141.304
  C      342.635       9.551    -140.849
  N      342.426      10.898    -140.764
  N      340.347       8.793    -141.745
  C      339.915       7.561    -141.945
  N      340.913       6.628    -141.780
  O      335.213       2.691    -141.194
  O      335.675       4.079    -139.069
  H      341.711       5.224    -139.311
  H      334.441       2.431    -140.660
  H      345.021       7.381    -140.201
  H      338.903       7.290    -142.209
  H      341.783       4.892    -142.424
  H      339.679       4.870    -140.158
  H      339.591       2.443    -140.579
  H      339.553       2.857    -143.356
  H      337.336       4.241    -142.927
  H      343.181      11.471    -140.423
  H      341.539      11.308    -141.033
  H      337.370       2.521    -142.579
  P      341.871       1.162    -140.892
  C      342.822      -0.001    -142.983
  O      343.130       0.628    -141.750
  O      340.774       0.031    -141.217
  O      342.083       1.422    -139.443
  H      340.618      -0.054    -142.177
  H      343.756      -0.229    -143.491
  H      342.236       0.676    -143.617
  H      342.261      -0.929    -142.804
  H      333.719       6.261    -141.948
  H      333.683       5.592    -140.334
  H      333.474       4.546    -141.718

 3  4  5  6  7  8  9  10  11  12  22  25  29  30  31  32 0
 6-311+G(2d,p)
 ****
 33  36  37 0
 6-311+G(2d,p)
 ****
 1  2  13  14  15  16  17  18  19  20  21  23  24  26 0
 3-21G
 ****
 27  28  34  35  38  39  40  41  42  43  44  45  46  47  48 0
 3-21G
 ****


