%nproc=1
%NoSave
%Mem=1900MB
#P OB98/GEN NMR

erre ene a

0 1
  C     1124.539    -898.100    -177.813
  O     1123.294    -897.960    -178.439
  P     1122.757    -896.510    -178.848
  C     1122.707    -896.950    -181.393
  O     1123.269    -896.160    -180.343
  C     1123.206    -896.610    -182.779
  O     1122.807    -895.270    -183.171
  C     1124.750    -896.650    -182.926
  O     1124.992    -897.100    -184.275
  C     1125.155    -895.180    -182.750
  O     1126.459    -894.920    -183.238
  C     1124.003    -894.480    -183.455
  N     1123.850    -893.100    -183.003
  C     1124.218    -892.080    -183.935
  O     1124.687    -892.420    -185.034
  N     1124.107    -890.780    -183.543
  C     1123.679    -890.510    -182.310
  N     1123.594    -889.190    -182.025
  C     1123.392    -891.530    -181.319
  C     1123.452    -892.770    -181.707
  O     1122.991    -895.440    -177.843
  O     1121.184    -896.750    -179.073
  H     1126.439    -895.050    -184.217
  H     1120.712    -895.910    -178.843
  H     1123.081    -891.250    -180.328
  H     1123.250    -893.590    -181.066
  H     1124.141    -894.500    -184.551
  H     1125.132    -894.970    -181.657
  H     1125.247    -897.330    -182.238
  H     1122.744    -897.320    -183.470
  H     1123.868    -888.500    -182.717
  H     1121.603    -896.830    -181.349
  H     1123.445    -888.850    -181.079
  H     1122.902    -898.050    -181.175
  P     1125.638    -898.520    -184.624
  C     1123.516    -899.170    -185.922
  O     1124.393    -899.520    -184.884
  O     1126.631    -899.010    -183.654
  O     1126.242    -898.340    -186.134
  H     1126.914    -899.050    -186.265
  H     1122.852    -900.000    -186.169
  H     1124.036    -898.870    -186.854
  H     1122.886    -898.320    -185.661
  H     1124.726    -899.135    -177.618
  H     1124.537    -897.558    -176.891
  H     1125.305    -897.714    -178.452

 3  4  5  6  7  8  9  10  11  12  13  23  27  28  29  30  32 0
 6-311+G(2d,p)
 ****
 34  35 0
 6-311+G(2d,p)
 ****
 1  2  14  15  16  17  18  19  20  21  22  24  25  26 0
 3-21G
 ****
 31  33  36  37  38  39  40  41  42  43  44  45  46 0
 3-21G
 ****


