%nproc=1
%NoSave
%Mem=1900MB
#P OB98/GEN NMR

erre ene a

0 1
  C        3.978      33.254     -15.025
  O        3.400      34.513     -15.304
  P        2.070      34.636     -16.184
  C        3.428      35.640     -18.111
  O        2.494      34.640     -17.729
  C        3.942      35.409     -19.530
  O        4.493      34.070     -19.631
  C        2.871      35.560     -20.618
  O        3.495      36.186     -21.745
  C        2.506      34.124     -20.940
  O        1.921      33.989     -22.228
  C        3.865      33.438     -20.763
  N        3.742      32.002     -20.569
  C        3.561      31.223     -21.714
  O        3.380      31.761     -22.807
  N        3.574      29.857     -21.585
  C        3.574      29.327     -20.400
  N        3.656      27.971     -20.318
  C        3.512      30.129     -19.163
  C        3.642      31.444     -19.316
  O        1.152      35.746     -15.791
  O        1.351      33.214     -16.012
  H        0.430      33.356     -15.719
  H        1.784      33.037     -22.415
  H        3.386      29.645     -18.206
  H        3.637      32.117     -18.467
  H        4.506      33.623     -21.634
  H        1.789      33.751     -20.200
  H        2.019      36.165     -20.294
  H        4.764      36.113     -19.713
  H        3.738      27.457     -21.186
  H        4.270      35.602     -17.417
  H        3.977      27.499     -19.474
  H        2.969      36.631     -18.023
  P        2.855      37.546     -22.312
  C        1.751      36.386     -24.353
  O        1.569      37.157     -23.185
  O        3.918      37.952     -23.447
  O        2.700      38.667     -21.338
  H        3.878      38.916     -23.587
  H        0.784      36.276     -24.852
  H        2.125      35.392     -24.098
  H        2.444      36.880     -25.038
  H        4.855      33.389     -14.426
  H        4.243      32.772     -15.943
  H        3.274      32.648     -14.495

 3  4  5  6  7  8  9  10  11  12  13  24  27  28  29  30  32 0
 6-311+G(2d,p)
 ****
 34  35 0
 6-311+G(2d,p)
 ****
 1  2  14  15  16  17  18  19  20  21  22  23  25  26 0
 3-21G
 ****
 31  33  36  37  38  39  40  41  42  43  44  45  46 0
 3-21G
 ****


