%nproc=1
%NoSave
%Mem=1900MB
#P OB98/GEN NMR

erre ene a

0 1
  C      585.699     518.782    -579.344
  O      586.488     519.442    -578.344
  P      588.077     519.464    -578.511
  C      588.949     518.011    -576.572
  O      588.761     519.336    -577.062
  C      589.242     518.028    -575.066
  O      590.506     518.712    -574.805
  C      588.168     518.765    -574.257
  O      588.023     518.162    -572.954
  C      588.764     520.151    -574.070
  O      588.168     520.835    -572.964
  C      590.250     519.800    -573.889
  N      594.666     522.037    -572.562
  C      594.096     520.872    -572.157
  N      592.931     520.334    -572.571
  C      592.332     521.115    -573.500
  C      592.808     522.317    -574.014
  C      594.031     522.790    -573.488
  N      594.601     523.984    -573.873
  N      591.926     522.832    -574.963
  C      590.930     521.976    -574.981
  N      591.143     520.913    -574.150
  O      588.619     520.567    -579.366
  O      588.403     518.040    -579.172
  H      588.583     521.711    -572.907
  H      589.065     518.139    -579.880
  H      594.641     520.304    -571.416
  H      590.025     522.085    -575.567
  H      590.462     519.429    -572.868
  H      588.609     520.751    -574.968
  H      587.185     518.807    -574.746
  H      589.364     517.006    -574.705
  H      589.773     517.530    -577.117
  H      595.410     524.294    -573.361
  H      594.059     524.620    -574.450
  H      588.058     517.414    -576.796
  P      586.665     517.336    -572.716
  C      586.919     517.678    -570.128
  O      586.744     516.789    -571.207
  O      586.403     516.308    -573.774
  O      585.561     518.502    -572.662
  H      585.758     519.229    -572.054
  H      586.819     517.127    -569.193
  H      586.188     518.478    -570.153
  H      587.935     518.113    -570.171
  H      584.663     518.856    -579.087
  H      585.980     517.751    -579.397
  H      585.865     519.246    -580.293

 3  4  5  6  7  8  9  10  11  12  22  25  29  30  31  32 0
 6-311+G(2d,p)
 ****
 33  36  37 0
 6-311+G(2d,p)
 ****
 1  2  13  14  15  16  17  18  19  20  21  23  24  26 0
 3-21G
 ****
 27  28  34  35  38  39  40  41  42  43  44  45  46  47  48 0
 3-21G
 ****


