%nproc=1
%NoSave
%Mem=1900MB
#P OB98/GEN NMR

erre ene a

0 1
  C     -218.730    -893.920     836.233
  O     -218.616    -894.440     837.552
  P     -219.798    -894.460     838.626
  C     -220.351    -897.030     838.569
  O     -220.763    -895.690     838.290
  C     -221.544    -897.990     838.783
  O     -222.205    -897.660     840.027
  C     -222.574    -897.840     837.681
  O     -222.400    -898.500     836.438
  C     -223.902    -898.110     838.354
  O     -224.319    -899.470     838.209
  C     -223.615    -897.780     839.827
  N     -228.054    -895.420     840.822
  C     -227.837    -896.670     840.277
  N     -228.926    -897.370     839.901
  N     -226.645    -897.190     840.107
  C     -225.634    -896.340     840.431
  C     -225.725    -895.080     840.958
  C     -227.041    -894.540     841.216
  O     -227.292    -893.430     841.687
  N     -224.486    -894.510     841.146
  C     -223.648    -895.440     840.712
  N     -224.308    -896.590     840.274
  O     -220.448    -893.150     838.897
  O     -219.048    -894.940     839.989
  H     -223.805    -900.000     838.836
  H     -219.525    -894.480     840.726
  H     -228.995    -895.080     840.962
  H     -222.563    -895.350     840.715
  H     -223.970    -898.590     840.478
  H     -224.701    -897.490     837.907
  H     -229.857    -896.990     839.897
  H     -222.595    -896.760     837.411
  H     -228.779    -898.190     839.308
  H     -221.169    -899.030     838.892
  H     -219.722    -896.990     839.463
  H     -219.711    -897.400     837.755
  P     -222.606    -897.860     834.974
  C     -220.471    -898.950     834.065
  O     -221.164    -897.740     834.293
  O     -223.004    -896.340     835.274
  O     -223.656    -898.530     834.136
  H     -223.401    -895.930     834.466
  H     -219.417    -898.720     833.900
  H     -220.878    -899.440     833.190
  H     -220.555    -899.610     834.939
  H     -217.795    -894.029     835.724
  H     -218.992    -892.884     836.280
  H     -219.489    -894.456     835.703

 3  4  5  6  7  8  9  10  11  12  23  26  30  31 0
 6-311+G(2d,p)
 ****
 33  35  36  37  38 0
 6-311+G(2d,p)
 ****
 1  2  13  14  15  16  17  18  19  20  21  22  24  25 0
 3-21G
 ****
 27  28  29  32  34  39  40  41  42  43  44  45  46  47  48  49 0
 3-21G
 ****


