%nproc=1
%NoSave
%Mem=1900MB
#P OB98/GEN NMR

erre ene a

0 1
  C      -18.168    -897.750     245.873
  O      -17.062    -896.870     245.939
  H      -17.887    -898.640     245.299
  H      -19.013    -897.260     245.376
  H      -18.460    -898.060     246.881
  P      -17.298    -895.460     246.657
  C      -15.755    -893.650     247.710
  O      -15.878    -894.980     247.223
  C      -14.425    -893.490     248.434
  O      -14.391    -894.340     249.601
  C      -13.216    -893.900     247.602
  O      -12.831    -892.890     246.677
  C      -12.174    -894.100     248.694
  O      -11.543    -892.870     249.068
  C      -13.011    -894.670     249.854
  N      -12.809    -896.110     250.006
  C      -11.977    -896.500     251.058
  O      -11.437    -895.700     251.823
  N      -11.754    -897.840     251.181
  C      -12.233    -898.810     250.347
  O      -11.946    -900.000     250.485
  C      -13.085    -898.350     249.247
  C      -13.330    -897.040     249.120
  O      -18.122    -895.850     247.968
  O      -18.013    -894.440     245.827
  H      -19.060    -895.580     247.866
  H      -11.208    -892.480     248.238
  H      -11.159    -898.140     251.941
  H      -13.480    -899.100     248.559
  H      -13.958    -896.670     248.311
  H      -12.736    -894.190     250.798
  H      -11.391    -894.780     248.358
  H      -13.403    -894.850     247.105
  H      -14.328    -892.450     248.768
  H      -16.570    -893.440     248.418
  H      -15.834    -892.950     246.868
  P      -11.692    -893.270     245.602
  C      -10.889    -892.090     243.399
  O      -11.908    -892.270     244.364
  O      -12.238    -894.680     245.077
  O      -10.316    -893.300     246.180
  H      -13.209    -894.750     245.165
  H      -11.218    -891.391     242.659
  H      -10.670    -893.028     242.932
  H      -10.008    -891.715     243.876

 6  7  8  9  10  11  12  13  14  15  16  27  31  32  33  34  35 0
 6-311+G(2d,p)
 ****
 36  37 0
 6-311+G(2d,p)
 ****
 1  2  3  4  5  17  18  19  20  21  22  23  24  25 0
 3-21G
 ****
 26  28  29  30  38  39  40  41  42  43  44  45 0
 3-21G
 ****


