%nproc=1
%NoSave
%Mem=1900MB
#P OB98/GEN NMR

erre ene a

0 1
  C      164.770    -188.327     465.911
  O      164.522    -187.551     464.758
  H      165.419    -187.759     466.585
  H      165.271    -189.263     465.645
  H      163.829    -188.545     466.428
  P      163.670    -188.259     463.592
  C      165.833    -188.353     462.140
  O      164.772    -189.073     462.753
  C      166.861    -189.331     461.575
  O      167.972    -188.626     460.985
  C      167.473    -190.267     462.619
  O      166.618    -191.341     462.957
  C      168.709    -190.735     461.868
  O      168.328    -191.711     460.879
  C      169.177    -189.421     461.202
  N      170.146    -188.682     462.008
  C      171.490    -188.815     461.641
  O      171.821    -189.535     460.701
  N      172.446    -188.154     462.385
  C      172.091    -187.419     463.388
  N      173.080    -186.796     464.099
  C      170.689    -187.235     463.793
  C      169.775    -187.889     463.074
  O      163.298    -187.054     462.608
  O      162.497    -189.070     464.040
  H      167.839    -192.411     461.352
  H      162.873    -187.407     461.790
  H      170.435    -186.621     464.648
  H      168.720    -187.804     463.311
  H      169.611    -189.618     460.215
  H      169.447    -191.208     462.521
  H      167.795    -189.711     463.512
  H      166.374    -189.904     460.769
  H      174.037    -186.988     463.838
  H      166.300    -187.710     462.894
  H      172.918    -186.359     464.993
  H      165.447    -187.725     461.327
  P      166.960    -192.163     464.302
  C      167.977    -194.087     462.873
  O      168.170    -193.165     463.946
  O      165.700    -193.140     464.451
  O      167.173    -191.319     465.524
  H      165.447    -193.239     465.396
  H      168.857    -194.683     462.752
  H      167.785    -193.547     461.969
  H      167.144    -194.721     463.093

 6  7  8  9  10  11  12  13  14  15  16  26  30  31  32  33  35 0
 6-311+G(2d,p)
 ****
 37  38 0
 6-311+G(2d,p)
 ****
 1  2  3  4  5  17  18  19  20  21  22  23  24  25 0
 3-21G
 ****
 27  28  29  34  36  39  40  41  42  43  44  45  46 0
 3-21G
 ****


