%nproc=1
%NoSave
%Mem=1900MB
#P OB98/GEN NMR

erre ene a

0 1
  C      -45.369      36.322     -89.054
  O      -46.705      36.547     -89.477
  P      -47.633      35.262     -89.733
  C      -47.981      33.618     -91.725
  O      -47.393      34.828     -91.260
  C      -47.743      33.457     -93.221
  O      -48.426      34.489     -93.964
  C      -46.281      33.568     -93.637
  O      -45.568      32.357     -93.429
  C      -46.422      33.850     -95.125
  O      -46.673      32.624     -95.838
  C      -47.661      34.755     -95.164
  N      -45.884      38.464     -98.119
  C      -46.283      37.182     -98.449
  N      -46.127      36.819     -99.743
  N      -46.789      36.335     -97.592
  C      -46.875      36.831     -96.335
  C      -46.517      38.081     -95.884
  C      -45.947      39.007     -96.841
  O      -45.529      40.134     -96.598
  N      -46.764      38.219     -94.545
  C      -47.271      37.059     -94.182
  N      -47.319      36.167     -95.221
  O      -49.112      35.875     -89.756
  O      -47.492      34.177     -88.722
  H      -45.877      32.064     -95.720
  H      -49.772      35.163     -89.634
  H      -45.494      39.078     -98.813
  H      -47.601      36.813     -93.176
  H      -48.305      34.527     -96.020
  H      -45.521      34.294     -95.560
  H      -45.685      37.407    -100.436
  H      -45.791      34.420     -93.148
  H      -46.348      35.868    -100.001
  H      -48.160      32.488     -93.527
  H      -49.055      33.641     -91.522
  H      -47.547      32.774     -91.176
  P      -44.216      32.457     -92.565
  C      -42.313      34.225     -92.623
  O      -43.288      33.501     -93.350
  O      -43.518      31.040     -92.830
  O      -44.427      32.722     -91.112
  H      -42.934      30.805     -92.084
  H      -41.610      34.675     -93.331
  H      -41.757      33.573     -91.948
  H      -42.793      35.024     -92.053
  H      -44.873      37.261     -88.924
  H      -44.853      35.746     -89.793
  H      -45.374      35.789     -88.126

 3  4  5  6  7  8  9  10  11  12  23  26  30  31 0
 6-311+G(2d,p)
 ****
 33  35  36  37  38 0
 6-311+G(2d,p)
 ****
 1  2  13  14  15  16  17  18  19  20  21  22  24  25 0
 3-21G
 ****
 27  28  29  32  34  39  40  41  42  43  44  45  46  47  48  49 0
 3-21G
 ****


