%nproc=1
%NoSave
%Mem=1900MB
#P OB98/GEN NMR

erre ene a

0 1
  C      221.526     -69.248     -54.291
  O      222.238     -68.041     -54.492
  H      220.546     -69.162     -54.769
  H      221.383     -69.422     -53.221
  H      222.064     -70.089     -54.736
  P      223.784     -68.047     -54.072
  C      223.356     -66.876     -51.765
  O      223.843     -68.013     -52.464
  C      224.519     -66.089     -51.169
  O      224.064     -64.831     -50.630
  C      225.189     -66.766     -49.983
  O      225.974     -67.877     -50.363
  C      226.005     -65.610     -49.423
  O      227.261     -65.470     -50.099
  C      225.092     -64.394     -49.708
  N      224.538     -63.838     -48.485
  C      225.467     -63.243     -47.622
  O      226.659     -63.201     -47.933
  N      225.028     -62.750     -46.422
  C      223.776     -62.865     -46.095
  N      223.411     -62.384     -44.876
  C      222.765     -63.487     -46.975
  C      223.209     -63.948     -48.145
  O      224.260     -66.578     -54.486
  O      224.591     -69.146     -54.677
  H      227.052     -65.175     -51.011
  H      223.674     -65.873     -54.169
  H      221.733     -63.547     -46.664
  H      222.537     -64.419     -48.851
  H      225.654     -63.601     -50.220
  H      226.232     -65.752     -48.364
  H      224.436     -67.047     -49.233
  H      225.241     -65.886     -51.971
  H      224.149     -62.018     -44.283
  H      222.658     -67.179     -50.976
  H      222.487     -62.489     -44.486
  H      222.801     -66.259     -52.478
  P      225.794     -69.302     -49.659
  C      227.193     -68.697     -47.578
  O      225.903     -69.051     -48.072
  O      226.683     -70.385     -50.169
  O      224.232     -69.603     -49.838
  H      223.637     -68.943     -49.435
  H      227.143     -68.556     -46.518
  H      227.516     -67.789     -48.043
  H      227.888     -69.480     -47.802

 6  7  8  9  10  11  12  13  14  15  16  26  30  31  32  33  35 0
 6-311+G(2d,p)
 ****
 37  38 0
 6-311+G(2d,p)
 ****
 1  2  3  4  5  17  18  19  20  21  22  23  24  25 0
 3-21G
 ****
 27  28  29  34  36  39  40  41  42  43  44  45  46 0
 3-21G
 ****


