%nproc=1
%NoSave
%Mem=1900MB
#P OB98/GEN NMR

erre ene a

0 1
  C     -608.169    -479.470    -513.244
  O     -608.574    -479.453    -514.597
  H     -607.260    -478.872    -513.141
  H     -607.952    -480.494    -512.917
  H     -608.946    -479.035    -512.610
  P     -609.829    -480.357    -515.030
  C     -609.479    -481.634    -517.251
  O     -609.826    -480.405    -516.634
  C     -609.072    -481.412    -518.719
  O     -610.135    -480.678    -519.391
  C     -607.780    -480.597    -518.890
  O     -607.156    -481.037    -520.107
  C     -608.329    -479.191    -519.045
  O     -607.355    -478.307    -519.542
  C     -609.552    -479.465    -519.929
  N     -610.497    -478.363    -519.935
  C     -610.433    -477.500    -521.043
  O     -609.602    -477.693    -521.929
  N     -611.286    -476.435    -521.096
  C     -612.092    -476.199    -520.109
  N     -612.903    -475.113    -520.217
  C     -612.156    -477.050    -518.901
  C     -611.341    -478.108    -518.884
  O     -611.141    -479.989    -514.418
  O     -609.385    -481.841    -514.626
  H     -607.099    -478.552    -520.461
  H     -609.864    -482.118    -513.816
  H     -612.831    -476.800    -518.091
  H     -611.315    -478.790    -518.039
  H     -609.248    -479.681    -520.963
  H     -608.642    -478.790    -518.081
  H     -607.088    -480.702    -518.049
  H     -608.999    -482.391    -519.213
  H     -612.824    -474.558    -521.061
  H     -610.356    -482.291    -517.201
  H     -613.560    -474.822    -519.500
  H     -608.646    -482.108    -516.715
  P     -605.572    -481.102    -520.300
  C     -605.500    -480.494    -522.805
  O     -605.232    -481.484    -521.818
  O     -604.867    -481.950    -519.286
  O     -605.073    -479.570    -520.187
  H     -604.174    -479.559    -519.808
  H     -605.231    -480.870    -523.770
  H     -604.928    -479.615    -522.593
  H     -606.542    -480.252    -522.794

 6  7  8  9  10  11  12  13  14  15  16  26  30  31  32  33  35 0
 6-311+G(2d,p)
 ****
 37  38 0
 6-311+G(2d,p)
 ****
 1  2  3  4  5  17  18  19  20  21  22  23  24  25 0
 3-21G
 ****
 27  28  29  34  36  39  40  41  42  43  44  45  46 0
 3-21G
 ****


