%nproc=1
%NoSave
%Mem=1900MB
#P OB98/GEN NMR

erre ene a

0 1
  C      429.733     492.879    -374.132
  O      428.752     493.919    -374.061
  P      429.064     495.244    -373.214
  C      426.837     496.071    -372.178
  O      427.780     496.210    -373.246
  C      425.661     497.035    -372.392
  O      426.120     498.361    -372.758
  C      424.748     496.610    -373.539
  O      423.971     495.451    -373.339
  C      424.016     497.901    -373.851
  O      422.904     498.102    -372.990
  C      425.113     498.958    -373.599
  N      425.694     499.488    -374.832
  C      425.239     500.741    -375.233
  O      424.373     501.371    -374.630
  N      425.799     501.235    -376.381
  C      426.719     500.599    -377.165
  O      427.172     501.079    -378.198
  C      427.143     499.273    -376.704
  C      426.621     498.779    -375.576
  O      430.366     495.912    -373.519
  O      429.052     494.704    -371.701
  H      422.335     497.308    -373.047
  H      429.781     495.143    -371.222
  H      425.488     502.144    -376.686
  H      427.870     498.732    -377.307
  H      426.918     497.800    -375.216
  H      424.702     499.808    -373.034
  H      423.620     497.899    -374.878
  H      425.393     496.389    -374.410
  H      425.106     497.122    -371.455
  H      427.329     496.279    -371.228
  H      426.498     495.031    -372.136
  P      424.245     494.064    -374.101
  C      421.762     493.306    -374.048
  O      423.098     493.021    -373.685
  O      425.652     493.564    -374.132
  O      423.807     494.448    -375.609
  H      424.373     493.938    -376.227
  H      421.121     492.499    -373.675
  H      421.671     493.354    -375.136
  H      421.441     494.253    -373.604
  H      429.360     492.077    -374.734
  H      429.942     492.518    -373.147
  H      430.631     493.265    -374.568

 3  4  5  6  7  8  9  10  11  12  13  23  28  29  30  31  32 0
 6-311+G(2d,p)
 ****
 33  34 0
 6-311+G(2d,p)
 ****
 1  2  14  15  16  17  18  19  20  21  22  24  25  26  27 0
 3-21G
 ****
 35  36  37  38  39  40  41  42  43  44  45 0
 3-21G
 ****


