%nproc=1
%NoSave
%Mem=1900MB
#P OB98/GEN NMR

erre ene a

0 1
  C      157.174       7.644      -2.761
  O      156.160       6.792      -2.266
  H      156.709       8.557      -3.142
  H      157.717       7.162      -3.579
  H      157.869       7.913      -1.961
  P      156.577       5.346      -1.721
  C      156.845       4.296      -4.070
  O      156.125       4.293      -2.842
  C      156.426       3.112      -4.940
  O      157.087       3.173      -6.219
  C      156.782       1.751      -4.353
  O      155.902       1.417      -3.300
  C      156.682       0.878      -5.592
  O      155.312       0.576      -5.900
  C      157.289       1.811      -6.669
  N      158.702       1.556      -6.930
  C      158.984       0.612      -7.924
  O      158.069       0.039      -8.512
  N      160.299       0.334      -8.207
  C      161.245       0.969      -7.591
  N      162.524       0.650      -7.921
  C      160.990       1.995      -6.562
  C      159.711       2.228      -6.276
  O      156.123       5.005      -0.335
  O      158.174       5.335      -1.838
  H      155.324       0.111      -6.760
  H      158.580       5.607      -0.995
  H      161.810       2.507      -6.080
  H      159.437       2.968      -5.531
  H      156.745       1.707      -7.617
  H      157.201      -0.073      -5.473
  H      157.823       1.746      -4.011
  H      155.347       3.192      -5.122
  H      162.650      -0.048      -8.648
  H      157.908       4.222      -3.820
  H      163.328       1.186      -7.629
  H      156.683       5.235      -4.611
  P      156.446       0.940      -1.869
  C      156.435      -1.576      -2.398
  O      155.844      -0.531      -1.642
  O      156.209       1.896      -0.750
  O      157.994       0.641      -2.136
  H      158.507       1.487      -2.179
  H      155.954      -2.502      -2.163
  H      157.476      -1.644      -2.159
  H      156.321      -1.370      -3.442

 6  7  8  9  10  11  12  13  14  15  16  26  30  31  32  33  35 0
 6-311+G(2d,p)
 ****
 37  38 0
 6-311+G(2d,p)
 ****
 1  2  3  4  5  17  18  19  20  21  22  23  24  25 0
 3-21G
 ****
 27  28  29  34  36  39  40  41  42  43  44  45  46 0
 3-21G
 ****


