%nproc=1
%NoSave
%Mem=1900MB
#P OB98/GEN NMR

erre ene a

0 1
  C      480.594    -565.038    -295.475
  O      481.330    -564.968    -296.693
  P      481.150    -563.669    -297.613
  C      481.088    -565.247    -299.668
  O      481.635    -564.072    -299.090
  C      481.237    -565.229    -301.188
  O      480.464    -564.116    -301.729
  C      482.670    -565.070    -301.697
  O      482.782    -565.803    -302.920
  C      482.767    -563.589    -301.992
  O      483.833    -563.278    -302.892
  C      481.362    -563.326    -302.536
  N      482.285    -558.662    -304.412
  C      482.803    -559.870    -304.722
  N      482.503    -561.073    -304.182
  C      481.568    -560.936    -303.218
  C      480.978    -559.763    -302.771
  C      481.372    -558.578    -303.418
  N      480.839    -557.343    -303.118
  N      480.090    -560.023    -301.753
  C      480.142    -561.335    -301.578
  N      481.004    -561.930    -302.460
  O      482.311    -562.704    -297.086
  O      479.813    -563.011    -297.534
  H      483.728    -562.350    -303.179
  H      481.921    -561.931    -296.625
  H      483.544    -559.876    -305.520
  H      479.581    -561.886    -300.842
  H      481.258    -563.650    -303.577
  H      482.949    -563.030    -301.066
  H      483.437    -565.409    -300.979
  H      480.789    -566.152    -301.592
  H      480.023    -565.295    -299.420
  H      481.065    -556.568    -303.716
  H      480.026    -557.301    -302.511
  H      481.584    -566.130    -299.254
  P      483.956    -566.892    -303.021
  C      485.196    -565.801    -305.017
  O      484.443    -566.905    -304.541
  O      483.183    -568.291    -302.856
  O      485.023    -566.727    -301.989
  H      483.783    -568.950    -302.476
  H      485.915    -566.154    -305.761
  H      485.738    -565.296    -304.212
  H      484.520    -565.083    -305.493
  H      480.818    -565.957    -294.975
  H      479.546    -564.994    -295.688
  H      480.865    -564.215    -294.847

 3  4  5  6  7  8  9  10  11  12  22  25  29  30  31  32 0
 6-311+G(2d,p)
 ****
 33  36  37 0
 6-311+G(2d,p)
 ****
 1  2  13  14  15  16  17  18  19  20  21  23  24  26 0
 3-21G
 ****
 27  28  34  35  38  39  40  41  42  43  44  45  46  47  48 0
 3-21G
 ****


