%nproc=1
%NoSave
%Mem=1900MB
#P OB98/GEN NMR

erre ene a

0 1
  C       85.185      -8.937     103.975
  O       84.724      -8.682     102.658
  P       84.032      -7.285     102.266
  C       84.988      -4.892     102.038
  O       85.100      -6.156     102.667
  C       85.245      -3.770     103.047
  O       84.075      -3.637     103.897
  C       86.456      -4.005     103.959
  O       87.051      -2.727     104.213
  C       85.825      -4.561     105.222
  O       86.654      -4.400     106.364
  C       84.514      -3.767     105.265
  N       83.497      -4.412     106.085
  C       82.935      -3.672     107.126
  O       83.308      -2.522     107.357
  N       81.955      -4.254     107.893
  C       81.627      -5.492     107.693
  N       80.610      -6.004     108.438
  C       82.271      -6.343     106.675
  C       83.170      -5.738     105.902
  O       82.669      -7.082     102.831
  O       84.093      -7.249     100.671
  H       87.513      -4.828     106.183
  H       83.333      -7.719     100.245
  H       81.983      -7.381     106.565
  H       83.677      -6.277     105.114
  H       84.699      -2.752     105.633
  H       85.635      -5.632     105.093
  H       87.201      -4.668     103.511
  H       85.358      -2.829     102.496
  H       80.080      -5.344     108.999
  H       83.972      -4.789     101.646
  H       80.093      -6.820     108.127
  H       85.689      -4.832     101.198
  P       88.605      -2.677     104.619
  C       90.815      -3.370     103.451
  O       89.420      -3.560     103.560
  O       88.628      -3.615     105.923
  O       89.162      -1.331     104.952
  H       89.384      -3.358     106.484
  H       91.203      -4.056     102.692
  H       91.309      -3.591     104.403
  H       91.041      -2.346     103.145
  H       85.609      -9.918     104.021
  H       84.365      -8.871     104.659
  H       85.929      -8.214     104.239

 3  4  5  6  7  8  9  10  11  12  13  23  27  28  29  30  32 0
 6-311+G(2d,p)
 ****
 34  35 0
 6-311+G(2d,p)
 ****
 1  2  14  15  16  17  18  19  20  21  22  24  25  26 0
 3-21G
 ****
 31  33  36  37  38  39  40  41  42  43  44  45  46 0
 3-21G
 ****


