%nproc=1
%NoSave
%Mem=1900MB
#P OB98/GEN NMR

erre ene a

0 1
  C       42.560     -86.035      22.227
  O       43.423     -85.906      23.357
  P       44.304     -87.169      23.804
  C       42.696     -87.573      25.774
  O       44.051     -87.428      25.366
  C       42.614     -88.060      27.222
  O       43.088     -89.415      27.356
  C       43.461     -87.240      28.180
  O       42.860     -85.984      28.441
  C       43.553     -88.178      29.374
  O       42.382     -88.078      30.200
  C       43.605     -89.565      28.695
  N       44.935     -90.154      28.692
  C       45.503     -90.395      29.947
  O       44.901     -90.076      30.973
  N       46.746     -90.976      30.005
  C       47.367     -91.281      28.908
  N       48.592     -91.857      29.026
  C       46.808     -91.032      27.565
  C       45.604     -90.464      27.532
  O       45.736     -87.138      23.386
  O       43.530     -88.399      23.120
  H       42.264     -87.125      30.385
  H       44.177     -89.102      22.914
  H       47.362     -91.310      26.681
  H       45.120     -90.244      26.587
  H       42.932     -90.263      29.210
  H       44.415     -87.946      30.008
  H       44.461     -87.089      27.752
  H       41.561     -88.027      27.534
  H       48.958     -92.006      29.958
  H       42.190     -88.282      25.114
  H       49.132     -92.176      28.234
  H       42.185     -86.611      25.653
  P       43.301     -84.743      27.529
  C       44.831     -83.745      29.366
  O       43.730     -83.548      28.502
  O       41.910     -84.238      26.913
  O       44.279     -85.076      26.449
  H       42.056     -83.896      26.013
  H       45.181     -82.768      29.715
  H       45.654     -84.250      28.856
  H       44.519     -84.334      30.232
  H       42.047     -85.110      22.063
  H       41.847     -86.811      22.410
  H       43.140     -86.280      21.362

 3  4  5  6  7  8  9  10  11  12  13  23  27  28  29  30  32 0
 6-311+G(2d,p)
 ****
 34  35 0
 6-311+G(2d,p)
 ****
 1  2  14  15  16  17  18  19  20  21  22  24  25  26 0
 3-21G
 ****
 31  33  36  37  38  39  40  41  42  43  44  45  46 0
 3-21G
 ****


