%nproc=1
%NoSave
%Mem=1900MB
#P OB98/GEN NMR

erre ene a

0 1
  C      501.448    -380.841    -463.798
  O      502.564    -380.194    -463.199
  P      502.327    -379.524    -461.759
  C      502.810    -381.564    -460.194
  O      501.846    -380.705    -460.787
  C      503.302    -380.957    -458.882
  O      503.818    -379.620    -459.115
  C      502.229    -380.820    -457.813
  O      502.045    -382.047    -457.131
  C      502.818    -379.709    -456.928
  O      503.800    -380.249    -456.028
  C      503.468    -378.786    -457.970
  N      503.430    -374.016    -459.634
  C      504.468    -374.767    -459.118
  N      505.690    -374.179    -459.088
  N      504.331    -375.991    -458.680
  C      503.058    -376.448    -458.759
  C      501.941    -375.798    -459.233
  C      502.122    -374.463    -459.762
  O      501.255    -373.786    -460.312
  N      500.816    -376.567    -459.129
  C      501.261    -377.705    -458.630
  N      502.617    -377.692    -458.407
  O      501.006    -378.644    -461.982
  O      503.473    -378.728    -461.233
  H      503.343    -380.696    -455.290
  H      501.245    -377.706    -462.134
  H      503.592    -373.080    -459.969
  H      500.654    -378.569    -458.427
  H      504.392    -378.339    -457.602
  H      502.047    -379.229    -456.312
  H      505.859    -373.235    -459.388
  H      501.283    -380.473    -458.255
  H      506.455    -374.719    -458.711
  H      504.135    -381.575    -458.516
  H      503.649    -381.689    -460.874
  H      502.357    -382.543    -460.014
  P      500.693    -382.235    -456.284
  C      499.302    -383.266    -458.225
  O      499.473    -382.180    -457.319
  O      500.566    -380.851    -455.481
  O      500.697    -383.404    -455.359
  H      500.191    -381.022    -454.591
  H      498.232    -383.358    -458.457
  H      499.656    -384.211    -457.797
  H      499.848    -383.057    -459.142
  H      501.736    -381.243    -464.747
  H      500.657    -380.134    -463.935
  H      501.112    -381.633    -463.162

 3  4  5  6  7  8  9  10  11  12  23  26  30  31 0
 6-311+G(2d,p)
 ****
 33  35  36  37  38 0
 6-311+G(2d,p)
 ****
 1  2  13  14  15  16  17  18  19  20  21  22  24  25 0
 3-21G
 ****
 27  28  29  32  34  39  40  41  42  43  44  45  46  47  48  49 0
 3-21G
 ****


