%nproc=1
%NoSave
%Mem=1900MB
#P OB98/GEN NMR

erre ene a

0 1
  C      -21.135      22.750      39.357
  O      -19.862      23.047      38.822
  H      -21.461      23.592      39.973
  H      -21.084      21.856      39.983
  H      -21.857      22.601      38.551
  P      -19.170      21.910      37.927
  C      -19.638      20.886      35.586
  O      -20.126      21.677      36.661
  C      -20.800      20.163      34.914
  O      -21.345      19.168      35.809
  C      -21.970      21.068      34.554
  O      -21.729      21.815      33.375
  C      -23.083      20.047      34.389
  O      -23.071      19.463      33.077
  C      -22.734      18.998      35.466
  N      -23.603      19.099      36.634
  C      -24.920      18.691      36.443
  O      -25.347      18.271      35.368
  N      -25.748      18.819      37.524
  C      -25.404      19.339      38.738
  O      -26.213      19.494      39.644
  C      -23.995      19.739      38.886
  C      -23.174      19.612      37.841
  O      -19.369      20.587      38.805
  O      -17.737      22.154      37.593
  H      -18.535      20.357      39.254
  H      -22.162      19.137      32.932
  H      -26.709      18.540      37.403
  H      -23.687      20.150      39.840
  H      -22.136      19.920      37.920
  H      -22.836      17.984      35.057
  H      -24.065      20.500      34.524
  H      -22.215      21.725      35.397
  H      -20.420      19.650      34.020
  H      -18.930      20.144      35.970
  H      -19.117      21.534      34.874
  P      -22.616      23.123      33.102
  C      -22.655      25.474      34.273
  O      -22.413      24.083      34.370
  O      -24.093      22.540      33.286
  O      -22.351      23.763      31.783
  H      -24.149      21.859      33.979
  H      -22.464      25.936      35.219
  H      -23.675      25.640      33.994
  H      -22.009      25.898      33.532

 6  7  8  9  10  11  12  13  14  15  16  27  31  32  33  34  35 0
 6-311+G(2d,p)
 ****
 36  37 0
 6-311+G(2d,p)
 ****
 1  2  3  4  5  17  18  19  20  21  22  23  24  25 0
 3-21G
 ****
 26  28  29  30  38  39  40  41  42  43  44  45 0
 3-21G
 ****


