%nproc=1
%NoSave
%Mem=1900MB
#P OB98/GEN NMR

erre ene a

0 1
  C     -192.608     -47.488     113.372
  O     -192.035     -46.969     112.168
  P     -191.197     -47.988     111.250
  C     -193.204     -48.560     109.674
  O     -191.920     -47.980     109.814
  C     -193.957     -47.947     108.486
  O     -194.117     -46.511     108.694
  C     -193.268     -48.150     107.131
  O     -194.309     -48.357     106.163
  C     -192.584     -46.815     106.890
  O     -192.311     -46.595     105.514
  C     -193.611     -45.859     107.510
  N     -193.044     -44.548     107.819
  C     -192.423     -43.867     106.778
  O     -192.269     -44.353     105.658
  N     -191.942     -42.622     107.080
  C     -191.949     -42.039     108.316
  O     -191.504     -40.918     108.531
  C     -192.516     -42.852     109.404
  C     -193.025     -44.052     109.108
  O     -191.598     -49.394     111.891
  O     -189.735     -47.688     111.233
  H     -192.525     -49.437     112.186
  H     -193.157     -46.584     105.017
  H     -191.516     -42.098     106.331
  H     -192.486     -42.449     110.407
  H     -193.431     -44.685     109.886
  H     -194.459     -45.716     106.829
  H     -191.638     -46.776     107.441
  H     -192.582     -49.001     107.124
  H     -194.963     -48.384     108.461
  H     -193.792     -48.391     110.585
  H     -193.102     -49.648     109.559
  P     -194.164     -49.596     105.144
  C     -195.749     -51.055     106.637
  O     -195.444     -50.535     105.360
  O     -192.989     -50.417     105.869
  O     -193.825     -49.224     103.738
  H     -193.133     -50.524     106.824
  H     -196.763     -51.458     106.619
  H     -195.698     -50.275     107.401
  H     -195.051     -51.860     106.887
  H     -193.134     -46.708     113.882
  H     -191.831     -47.865     114.003
  H     -193.288     -48.279     113.132

 3  4  5  6  7  8  9  10  11  12  13  24  28  29  30  31  32 0
 6-311+G(2d,p)
 ****
 33  34 0
 6-311+G(2d,p)
 ****
 1  2  14  15  16  17  18  19  20  21  22  23  25  26  27 0
 3-21G
 ****
 35  36  37  38  39  40  41  42  43  44  45 0
 3-21G
 ****


