%nproc=1
%NoSave
%Mem=1900MB
#P OB98/GEN NMR

erre ene a

0 1
  C      174.172    -629.719    -634.560
  O      174.038    -630.411    -635.788
  P      172.548    -630.719    -636.312
  C      172.886    -633.300    -636.672
  O      172.679    -632.021    -637.240
  C      172.601    -634.395    -637.716
  O      171.239    -634.283    -638.180
  C      173.468    -634.315    -638.962
  O      174.777    -634.816    -638.736
  C      172.633    -635.134    -639.953
  O      172.850    -636.540    -639.739
  C      171.199    -634.744    -639.556
  N      170.603    -633.741    -640.433
  C      170.632    -634.023    -641.796
  O      171.125    -635.053    -642.258
  N      170.098    -633.066    -642.617
  C      169.605    -631.857    -642.224
  O      169.172    -631.019    -643.004
  C      169.628    -631.602    -640.771
  C      170.120    -632.540    -639.958
  O      172.342    -629.510    -637.334
  O      171.541    -630.802    -635.215
  H      173.189    -629.184    -637.701
  H      173.670    -636.774    -640.230
  H      170.084    -633.257    -643.606
  H      169.251    -630.643    -640.430
  H      170.156    -632.360    -638.887
  H      170.554    -635.632    -639.547
  H      172.888    -634.918    -640.996
  H      173.528    -633.280    -639.318
  H      172.716    -635.374    -637.227
  H      172.221    -633.433    -635.827
  H      173.929    -633.378    -636.324
  P      175.920    -634.363    -639.776
  C      177.264    -636.433    -638.935
  O      177.272    -635.074    -639.288
  O      176.110    -632.827    -639.372
  O      175.545    -634.592    -641.200
  H      176.116    -632.685    -638.412
  H      178.296    -636.817    -638.989
  H      176.645    -637.028    -639.614
  H      176.900    -636.546    -637.913
  H      175.210    -629.585    -634.338
  H      173.710    -630.286    -633.779
  H      173.697    -628.763    -634.635

 3  4  5  6  7  8  9  10  11  12  13  24  28  29  30  31  32 0
 6-311+G(2d,p)
 ****
 33  34 0
 6-311+G(2d,p)
 ****
 1  2  14  15  16  17  18  19  20  21  22  23  25  26  27 0
 3-21G
 ****
 35  36  37  38  39  40  41  42  43  44  45 0
 3-21G
 ****


