%nproc=1
%NoSave
%Mem=1900MB
#P OB98/GEN NMR

erre ene a

0 1
  C      -16.098     429.321    -568.545
  O      -16.325     429.942    -569.816
  P      -17.591     429.521    -570.695
  C      -16.203     427.897    -572.149
  O      -17.341     428.056    -571.307
  C      -16.173     426.465    -572.713
  O      -17.171     426.282    -573.746
  C      -14.853     426.121    -573.386
  O      -13.720     425.986    -572.544
  C      -15.227     424.923    -574.243
  O      -15.220     423.709    -573.495
  C      -16.669     425.285    -574.669
  N      -16.750     425.760    -576.049
  C      -17.471     424.965    -576.930
  O      -17.985     423.891    -576.614
  N      -17.555     425.420    -578.224
  C      -16.968     426.564    -578.713
  O      -17.057     426.909    -579.882
  C      -16.203     427.359    -577.727
  C      -16.128     426.926    -576.473
  O      -18.089     430.538    -571.658
  O      -18.708     429.224    -569.565
  H      -14.297     423.370    -573.485
  H      -19.559     429.583    -569.888
  H      -18.080     424.862    -578.881
  H      -15.718     428.259    -578.087
  H      -15.572     427.497    -575.735
  H      -17.331     424.408    -574.573
  H      -14.532     424.787    -575.082
  H      -14.608     426.938    -574.084
  H      -16.398     425.766    -571.903
  H      -15.291     428.097    -571.583
  H      -16.241     428.633    -572.959
  P      -12.735     427.203    -572.205
  C      -11.608     427.247    -574.553
  O      -12.350     427.946    -573.570
  O      -11.629     426.932    -571.242
  O      -13.747     428.256    -571.529
  H      -13.261     428.755    -570.853
  H      -11.429     427.905    -575.391
  H      -12.163     426.370    -574.891
  H      -10.641     426.927    -574.136
  H      -15.211     429.725    -568.104
  H      -15.981     428.266    -568.679
  H      -16.933     429.508    -567.903

 3  4  5  6  7  8  9  10  11  12  13  23  28  29  30  31  32 0
 6-311+G(2d,p)
 ****
 33  34 0
 6-311+G(2d,p)
 ****
 1  2  14  15  16  17  18  19  20  21  22  24  25  26  27 0
 3-21G
 ****
 35  36  37  38  39  40  41  42  43  44  45 0
 3-21G
 ****


