%nproc=1
%NoSave
%Mem=1900MB
#P OB98/GEN NMR

erre ene a

0 1
  C     -128.606    -242.905     554.745
  O     -127.249    -242.799     555.177
  P     -126.155    -242.162     554.202
  C     -124.413    -240.295     554.629
  O     -125.777    -240.688     554.717
  C     -124.208    -238.950     555.339
  O     -125.049    -237.916     554.765
  C     -124.600    -238.992     556.811
  O     -123.775    -239.752     557.669
  C     -124.782    -237.518     557.139
  O     -123.537    -236.891     557.438
  C     -125.364    -236.976     555.813
  N     -126.804    -236.729     555.890
  C     -127.256    -236.085     557.037
  O     -126.519    -235.774     557.974
  N     -128.602    -235.845     557.095
  C     -129.524    -236.204     556.154
  O     -130.722    -235.985     556.273
  C     -128.991    -236.899     554.976
  C     -127.678    -237.129     554.899
  O     -126.441    -242.270     552.743
  O     -124.827    -242.996     554.561
  H     -123.721    -235.940     557.599
  H     -124.356    -243.183     553.728
  H     -128.947    -235.375     557.920
  H     -129.693    -237.207     554.210
  H     -127.264    -237.638     554.032
  H     -124.877    -236.027     555.542
  H     -125.429    -237.378     558.014
  H     -125.600    -239.455     556.877
  H     -123.173    -238.640     555.209
  H     -124.114    -240.216     553.582
  H     -123.788    -241.073     555.072
  P     -124.172    -241.205     558.219
  C     -123.404    -243.595     557.570
  O     -123.745    -242.300     557.125
  O     -125.517    -241.353     558.846
  O     -123.054    -241.427     559.352
  H     -123.451    -241.956     560.074
  H     -123.126    -244.195     556.699
  H     -124.251    -244.072     558.067
  H     -122.546    -243.550     558.249
  H     -129.193    -243.352     555.520
  H     -128.654    -243.513     553.866
  H     -128.988    -241.930     554.526

 3  4  5  6  7  8  9  10  11  12  13  23  28  29  30  31  32 0
 6-311+G(2d,p)
 ****
 33  34 0
 6-311+G(2d,p)
 ****
 1  2  14  15  16  17  18  19  20  21  22  24  25  26  27 0
 3-21G
 ****
 35  36  37  38  39  40  41  42  43  44  45 0
 3-21G
 ****


