%nproc=1
%NoSave
%Mem=1900MB
#P OB98/GEN NMR

erre ene a

0 1
  C      195.803     499.947    -130.740
  O      196.962     499.785    -131.536
  H      196.105     500.354    -129.767
  H      195.313     498.982    -130.576
  H      195.113     500.641    -131.217
  P      196.763     499.096    -132.972
  C      199.278     498.422    -133.052
  O      197.919     497.989    -133.126
  C      200.028     497.583    -132.021
  O      199.590     497.940    -130.684
  C      199.761     496.081    -132.123
  O      200.512     495.476    -133.162
  C      200.193     495.608    -130.756
  O      201.612     495.387    -130.678
  C      199.761     496.790    -129.845
  N      198.552     496.472    -129.089
  C      198.406     497.142    -127.863
  O      199.245     497.947    -127.423
  N      197.295     496.813    -127.131
  C      196.355     495.883    -127.476
  O      195.405     495.612    -126.748
  C      196.561     495.205    -128.764
  C      197.635     495.521    -129.497
  O      197.196     500.242    -133.992
  O      195.379     498.599    -133.240
  H      196.409     500.617    -134.426
  H      201.809     494.679    -131.327
  H      197.184     497.298    -126.266
  H      195.845     494.454    -129.051
  H      197.822     495.025    -130.442
  H      200.562     497.028    -129.134
  H      199.707     494.667    -130.484
  H      198.684     495.895    -132.252
  H      201.096     497.788    -132.104
  H      199.316     499.472    -132.751
  H      199.734     498.320    -134.040
  P      199.815     495.331    -134.612
  C      201.340     493.191    -134.831
  O      200.098     493.808    -135.068
  O      200.795     496.213    -135.506
  O      198.384     495.759    -134.616
  H      201.698     496.241    -135.133
  H      201.319     492.190    -135.208
  H      201.534     493.172    -133.779
  H      202.112     493.742    -135.326

 6  7  8  9  10  11  12  13  14  15  16  27  31  32  33  34  35 0
 6-311+G(2d,p)
 ****
 36  37 0
 6-311+G(2d,p)
 ****
 1  2  3  4  5  17  18  19  20  21  22  23  24  25 0
 3-21G
 ****
 26  28  29  30  38  39  40  41  42  43  44  45 0
 3-21G
 ****


