%nproc=1
%NoSave
%Mem=1900MB
#P OB98/GEN NMR

erre ene a

0 1
  C     -177.495       2.465    -158.866
  O     -177.280       3.599    -159.682
  P     -176.020       3.700    -160.670
  C     -177.459       2.436    -162.387
  O     -176.202       2.504    -161.728
  C     -177.647       1.087    -163.085
  O     -178.973       1.023    -163.673
  C     -176.629       0.798    -164.205
  O     -176.406      -0.617    -164.182
  C     -177.397       1.197    -165.448
  O     -176.851       0.626    -166.633
  C     -178.813       0.734    -165.081
  N     -179.831       1.382    -165.898
  C     -180.273       0.681    -167.022
  O     -179.754      -0.395    -167.331
  N     -181.252       1.236    -167.806
  C     -181.677       2.436    -167.546
  N     -182.654       2.933    -168.353
  C     -181.145       3.260    -166.444
  C     -180.245       2.672    -165.660
  O     -174.689       3.748    -159.996
  O     -176.335       4.994    -161.553
  H     -176.727      -0.338    -166.480
  H     -176.145       5.818    -161.038
  H     -181.493       4.271    -166.300
  H     -179.802       3.196    -164.829
  H     -178.907      -0.353    -165.202
  H     -177.370       2.288    -165.561
  H     -175.693       1.341    -164.089
  H     -177.594       0.302    -162.321
  H     -182.999       2.326    -169.088
  H     -177.488       3.225    -163.141
  H     -183.110       3.819    -168.187
  H     -178.266       2.619    -161.671
  P     -175.131      -1.267    -164.906
  C     -173.844      -1.574    -162.715
  O     -173.859      -0.950    -163.987
  O     -174.970      -0.905    -166.349
  O     -175.329      -2.846    -164.723
  H     -174.744      -3.322    -165.343
  H     -172.830      -1.518    -162.306
  H     -174.141      -2.621    -162.788
  H     -174.526      -1.049    -162.041
  H     -178.386       2.604    -158.290
  H     -176.661       2.336    -158.208
  H     -177.601       1.597    -159.482

 3  4  5  6  7  8  9  10  11  12  13  23  27  28  29  30  32 0
 6-311+G(2d,p)
 ****
 34  35 0
 6-311+G(2d,p)
 ****
 1  2  14  15  16  17  18  19  20  21  22  24  25  26 0
 3-21G
 ****
 31  33  36  37  38  39  40  41  42  43  44  45  46 0
 3-21G
 ****


