%nproc=1
%NoSave
%Mem=1900MB
#P OB98/GEN NMR

erre ene a

0 1
  C     -259.338     162.184    -187.812
  O     -260.070     161.533    -188.832
  H     -259.054     163.179    -188.164
  H     -258.430     161.627    -187.572
  H     -259.955     162.295    -186.915
  P     -260.537     160.021    -188.592
  C     -259.588     159.045    -190.793
  O     -260.752     159.381    -190.048
  C     -259.862     159.146    -192.295
  O     -260.846     158.165    -192.686
  C     -260.422     160.495    -192.736
  O     -259.402     161.473    -192.757
  C     -261.003     160.126    -194.087
  O     -259.971     160.036    -195.085
  C     -261.597     158.726    -193.791
  N     -263.025     158.751    -193.488
  C     -263.865     158.106    -194.400
  O     -263.393     157.564    -195.401
  N     -265.217     158.106    -194.163
  C     -265.692     158.663    -193.086
  N     -267.037     158.622    -192.907
  C     -264.837     159.321    -192.080
  C     -263.532     159.344    -192.348
  O     -261.686     159.825    -187.652
  O     -259.213     159.289    -188.066
  H     -260.425     159.805    -195.920
  H     -259.192     159.281    -187.091
  H     -265.270     159.766    -191.197
  H     -262.831     159.812    -191.657
  H     -261.448     158.057    -194.649
  H     -261.728     160.859    -194.445
  H     -261.242     160.800    -192.076
  H     -258.931     158.913    -192.825
  H     -267.578     158.142    -193.615
  H     -259.318     158.018    -190.530
  H     -267.492     158.874    -192.042
  H     -258.752     159.699    -190.521
  P     -259.678     162.989    -192.310
  C     -259.873     163.886    -194.711
  O     -259.120     163.903    -193.504
  O     -259.176     163.347    -190.955
  O     -261.262     163.145    -192.461
  H     -261.724     162.709    -191.701
  H     -259.409     164.528    -195.430
  H     -260.867     164.229    -194.516
  H     -259.909     162.888    -195.095

 6  7  8  9  10  11  12  13  14  15  16  26  30  31  32  33  35 0
 6-311+G(2d,p)
 ****
 37  38 0
 6-311+G(2d,p)
 ****
 1  2  3  4  5  17  18  19  20  21  22  23  24  25 0
 3-21G
 ****
 27  28  29  34  36  39  40  41  42  43  44  45  46 0
 3-21G
 ****


