%nproc=1
%NoSave
%Mem=1900MB
#P OB98/GEN NMR

erre ene a

0 1
  C      862.529    -199.774     437.754
  O      862.510    -199.542     439.168
  P      863.667    -200.233     440.047
  C      865.963    -200.681     438.865
  O      865.042    -199.733     439.406
  C      867.335    -200.034     438.671
  O      867.265    -198.998     437.653
  C      867.879    -199.348     439.905
  O      868.357    -200.296     440.857
  C      868.961    -198.463     439.298
  O      870.150    -199.223     439.036
  C      868.304    -198.041     437.959
  N      867.785    -196.680     437.982
  C      868.738    -195.665     437.894
  O      869.952    -195.876     437.809
  N      868.252    -194.384     437.903
  C      866.940    -194.027     438.032
  O      866.571    -192.854     438.027
  C      865.986    -195.129     438.181
  C      866.442    -196.394     438.156
  O      863.533    -201.759     439.584
  O      863.498    -199.995     441.514
  H      863.296    -201.855     438.639
  H      870.473    -199.537     439.905
  H      868.932    -193.634     437.819
  H      864.933    -194.886     438.316
  H      865.754    -197.226     438.263
  H      869.035    -198.117     437.143
  H      869.240    -197.633     439.948
  H      867.100    -198.721     440.371
  H      868.032    -200.810     438.323
  H      865.597    -201.054     437.898
  H      866.026    -201.537     439.551
  P      867.281    -200.871     441.907
  C      865.538    -202.803     441.679
  O      866.249    -201.750     441.059
  O      866.462    -199.544     442.274
  O      867.907    -201.562     443.084
  H      866.248    -199.006     441.493
  H      864.662    -203.043     441.071
  H      865.205    -202.534     442.683
  H      866.178    -203.695     441.737
  H      861.710    -199.259     437.297
  H      862.442    -200.823     437.564
  H      863.450    -199.413     437.346

 3  4  5  6  7  8  9  10  11  12  13  24  28  29  30  31  32 0
 6-311+G(2d,p)
 ****
 33  34 0
 6-311+G(2d,p)
 ****
 1  2  14  15  16  17  18  19  20  21  22  23  25  26  27 0
 3-21G
 ****
 35  36  37  38  39  40  41  42  43  44  45 0
 3-21G
 ****


