%nproc=1
%NoSave
%Mem=1900MB
#P OB98/GEN NMR

erre ene a

0 1
  C      -43.492     440.656     180.325
  O      -43.315     441.868     179.584
  P      -42.003     442.737     179.926
  C      -42.985     443.751     182.111
  O      -41.973     442.951     181.516
  C      -42.568     444.194     183.513
  O      -41.460     445.109     183.461
  C      -43.654     444.926     184.285
  O      -44.595     444.030     184.853
  C      -42.833     445.607     185.374
  O      -42.583     444.682     186.447
  C      -41.525     445.945     184.642
  N      -39.940     450.591     185.906
  C      -39.844     449.403     186.602
  N      -39.213     449.457     187.795
  N      -40.323     448.266     186.171
  C      -40.904     448.356     184.950
  C      -41.063     449.474     184.164
  C      -40.555     450.733     184.667
  O      -40.643     451.820     184.106
  N      -41.694     449.172     182.984
  C      -41.893     447.872     183.044
  N      -41.444     447.332     184.226
  O      -42.378     444.187     179.365
  O      -40.749     442.206     179.316
  H      -43.451     444.450     186.834
  H      -41.568     444.674     179.126
  H      -39.561     451.439     186.290
  H      -42.350     447.277     182.265
  H      -40.644     445.717     185.251
  H      -43.343     446.468     185.813
  H      -38.758     450.280     188.154
  H      -44.136     445.686     183.658
  H      -39.101     448.586     188.306
  H      -42.254     443.299     184.071
  H      -43.917     443.186     182.171
  H      -43.177     444.617     181.470
  P      -45.956     443.784     184.041
  C      -47.269     445.489     185.490
  O      -46.803     445.135     184.204
  O      -46.735     442.724     184.950
  O      -45.764     443.294     182.647
  H      -47.321     442.173     184.398
  H      -46.499     445.328     186.250
  H      -48.156     444.897     185.736
  H      -47.543     446.547     185.487
  H      -44.393     440.173     180.009
  H      -43.556     440.882     181.369
  H      -42.659     440.007     180.151

 3  4  5  6  7  8  9  10  11  12  23  26  30  31  33  0
 6-311+G(2d,p)
 ****
 35  36  37  38 0
 6-311+G(2d,p)
 ****
 1  2  13  14  15  16  17  18  19  20  21  22  24  25  27  28  29 0
 3-21G
 ****
 32  34  39  40  41  42  43  44  45  46  47  48  49 0
 3-21G
 ****


