%nproc=1
%NoSave
%Mem=1900MB
#P OB98/GEN NMR

erre ene a

0 1
  C       76.968      80.834     -99.221
  O       78.270      80.436     -99.597
  H       77.039      81.481     -98.343
  H       76.368      79.959     -98.961
  H       76.483      81.391    -100.027
  P       78.469      79.645    -100.976
  C       78.063      80.144    -103.474
  O       77.852      80.568    -102.133
  C       76.962      80.698    -104.373
  O       75.700      80.075    -104.058
  C       76.733      82.198    -104.222
  O       77.750      82.933    -104.875
  C       75.347      82.335    -104.836
  O       75.424      82.357    -106.270
  C       74.662      81.039    -104.340
  N       73.812      81.251    -103.168
  C       72.450      81.404    -103.410
  O       71.966      81.407    -104.541
  N       71.662      81.576    -102.303
  C       72.104      81.690    -101.016
  O       71.359      81.898    -100.063
  C       73.554      81.555    -100.824
  C       74.329      81.345    -101.891
  O       78.000      78.228    -100.987
  O       80.045      79.745    -101.242
  H       74.513      82.498    -106.596
  H       80.476      78.910    -100.981
  H       70.675      81.701    -102.460
  H       73.941      81.646     -99.818
  H       75.402      81.247    -101.769
  H       74.042      80.610    -105.136
  H       74.842      83.252    -104.534
  H       76.675      82.467    -103.162
  H       77.211      80.446    -105.413
  H       78.043      79.049    -103.504
  H       79.046      80.492    -103.804
  P       78.257      84.330    -104.284
  C       79.217      85.179    -102.067
  O       78.513      84.125    -102.711
  O       77.414      85.512    -104.628
  O       79.737      84.486    -104.873
  H       79.742      85.159    -105.582
  H       79.335      84.947    -101.029
  H       78.666      86.090    -102.168
  H       80.180      85.293    -102.519

 6  7  8  9  10  11  12  13  14  15  16  26  31  32  33  34  35 0
 6-311+G(2d,p)
 ****
 36  37 0
 6-311+G(2d,p)
 ****
 1  2  3  4  5  17  18  19  20  21  22  23  24  25 0
 3-21G
 ****
 27  28  29  30  38  39  40  41  42  43  44  45 0
 3-21G
 ****


