%nproc=1
%NoSave
%Mem=1900MB
#P OB98/GEN NMR

erre ene a

0 1
  C       15.929      37.730     167.195
  O       17.278      37.284     167.179
  P       17.662      35.995     168.053
  C       18.442      35.625     170.497
  O       17.778      36.481     169.579
  C       19.347      36.419     171.438
  O       20.453      36.971     170.675
  C       18.657      37.588     172.147
  O       19.264      37.721     173.438
  C       19.042      38.782     171.294
  O       18.921      40.013     172.000
  C       20.468      38.395     170.912
  N       22.928      42.526     169.176
  C       22.657      42.103     170.428
  N       21.998      40.990     170.811
  C       21.598      40.283     169.741
  C       21.770      40.608     168.406
  C       22.477      41.792     168.132
  N       22.763      42.221     166.857
  N       21.196      39.650     167.597
  C       20.687      38.764     168.426
  N       20.926      39.092     169.730
  O       19.181      35.724     167.629
  O       16.810      34.795     167.822
  H       19.472      39.959     172.804
  H       19.240      34.895     167.116
  H       23.026      42.737     171.230
  H       20.139      37.879     168.136
  H       21.182      38.595     171.721
  H       18.393      38.832     170.412
  H       17.573      37.474     172.247
  H       19.776      35.725     172.171
  H       19.057      34.917     169.934
  H       23.389      43.001     166.745
  H       22.599      41.588     166.081
  H       17.701      35.060     171.072
  P       18.329      38.241     174.631
  C       18.657      40.125     176.382
  O       18.888      39.677     175.061
  O       18.732      37.292     175.857
  O       16.868      38.169     174.336
  H       17.981      37.203     176.470
  H       19.506      40.735     176.702
  H       18.538      39.291     177.081
  H       17.752      40.738     176.400
  H       15.831      38.592     166.569
  H       15.649      37.983     168.196
  H       15.292      36.951     166.832

 3  4  5  6  7  8  9  10  11  12  22  25  29  30  31  32 0
 6-311+G(2d,p)
 ****
 33  36  37 0
 6-311+G(2d,p)
 ****
 1  2  13  14  15  16  17  18  19  20  21  23  24  26 0
 3-21G
 ****
 27  28  34  35  38  39  40  41  42  43  44  45  46  47  48 0
 3-21G
 ****


