%nproc=1
%NoSave
%Mem=1900MB
#P OB98/GEN NMR

erre ene a

0 1
  C      -15.542     -13.196    -113.487
  O      -16.613     -13.530    -112.604
  P      -16.549     -13.035    -111.080
  C      -16.086     -14.338    -108.914
  O      -15.649     -14.065    -110.238
  C      -14.992     -14.994    -108.060
  O      -14.712     -16.343    -108.523
  C      -13.659     -14.231    -108.050
  O      -13.101     -14.382    -106.739
  C      -12.841     -14.995    -109.073
  O      -11.449     -14.751    -108.948
  C      -13.296     -16.427    -108.776
  N      -12.996     -17.345    -109.862
  C      -11.651     -17.592    -110.138
  O      -10.775     -16.964    -109.542
  N      -11.336     -18.520    -111.101
  C      -12.281     -19.035    -111.824
  N      -11.933     -19.964    -112.754
  C      -13.701     -18.660    -111.681
  C      -13.985     -17.839    -110.675
  O      -17.864     -12.696    -110.460
  O      -15.607     -11.739    -111.167
  H      -11.249     -13.859    -109.300
  H      -15.912     -11.083    -110.510
  H      -14.442     -19.053    -112.360
  H      -14.996     -17.511    -110.483
  H      -12.823     -16.803    -107.859
  H      -13.147     -14.698    -110.083
  H      -13.765     -13.166    -108.273
  H      -15.372     -15.077    -107.034
  H      -10.952     -20.193    -112.858
  H      -16.954     -15.002    -108.954
  H      -12.616     -20.450    -113.321
  H      -16.438     -13.407    -108.455
  P      -12.921     -13.081    -105.818
  C      -11.614     -10.858    -106.142
  O      -11.673     -12.248    -106.379
  O      -12.316     -13.717    -104.472
  O      -14.166     -12.316    -105.507
  H      -12.524     -13.127    -103.723
  H      -10.594     -10.513    -106.335
  H      -11.868     -10.620    -105.105
  H      -12.297     -10.336    -106.818
  H      -15.741     -13.600    -114.458
  H      -14.628     -13.606    -113.110
  H      -15.454     -12.132    -113.555

 3  4  5  6  7  8  9  10  11  12  13  23  27  28  29  30  32 0
 6-311+G(2d,p)
 ****
 34  35 0
 6-311+G(2d,p)
 ****
 1  2  14  15  16  17  18  19  20  21  22  24  25  26 0
 3-21G
 ****
 31  33  36  37  38  39  40  41  42  43  44  45  46 0
 3-21G
 ****


