%nproc=1
%NoSave
%Mem=1900MB
#P OB98/GEN NMR

erre ene a

0 1
  C      198.612      -7.843    -140.927
  O      197.287      -7.620    -140.496
  P      196.282      -6.621    -141.233
  C      196.454      -4.918    -139.278
  O      196.555      -5.136    -140.681
  C      197.536      -3.970    -138.739
  O      198.820      -4.352    -139.277
  C      197.274      -2.541    -139.222
  O      196.362      -1.712    -138.531
  C      198.655      -1.936    -139.439
  O      199.081      -1.132    -138.339
  C      199.559      -3.161    -139.590
  N      202.963      -1.414    -142.917
  C      202.879      -1.186    -141.557
  N      203.690      -0.222    -141.069
  N      202.059      -1.825    -140.765
  C      201.243      -2.689    -141.415
  C      201.243      -3.010    -142.753
  C      202.181      -2.326    -143.610
  O      202.231      -2.440    -144.833
  N      200.226      -3.873    -143.069
  C      199.583      -4.046    -141.932
  N      200.139      -3.315    -140.909
  O      194.868      -7.080    -141.384
  O      196.928      -6.556    -142.711
  H      198.511      -0.342    -138.306
  H      196.193      -6.461    -143.348
  H      203.560      -0.833    -143.491
  H      198.697      -4.656    -141.805
  H      200.392      -3.115    -138.879
  H      198.658      -1.281    -140.318
  H      204.226       0.387    -141.670
  H      196.843      -2.623    -140.229
  H      203.537       0.089    -140.117
  H      197.631      -4.058    -137.654
  H      196.519      -5.894    -138.789
  H      195.469      -4.507    -139.044
  P      194.968      -1.159    -139.088
  C      195.937       1.207    -139.009
  O      195.228       0.258    -139.785
  O      194.146      -0.762    -137.772
  O      194.190      -2.130    -139.913
  H      193.191      -0.751    -137.971
  H      195.794       2.200    -139.440
  H      197.005       0.965    -139.019
  H      195.580       1.214    -137.974
  H      199.084      -8.549    -140.277
  H      199.154      -6.921    -140.906
  H      198.602      -8.228    -141.925

 3  4  5  6  7  8  9  10  11  12  23  26  30  31 0
 6-311+G(2d,p)
 ****
 33  35  36  37  38 0
 6-311+G(2d,p)
 ****
 1  2  13  14  15  16  17  18  19  20  21  22  24  25 0
 3-21G
 ****
 27  28  29  32  34  39  40  41  42  43  44  45  46  47  48  49 0
 3-21G
 ****


