%nproc=1
%NoSave
%Mem=1900MB
#P OB98/GEN NMR

erre ene a

0 1
  C     -806.540     497.479    -390.920
  O     -807.105     498.655    -391.459
  H     -806.109     497.726    -389.941
  H     -805.733     497.113    -391.563
  H     -807.299     496.707    -390.787
  P     -807.894     498.550    -392.863
  C     -809.795     500.104    -392.080
  O     -809.445     498.804    -392.536
  C     -810.230     500.056    -390.614
  O     -809.110     499.609    -389.801
  C     -810.681     501.415    -390.070
  O     -811.785     501.213    -389.182
  C     -809.480     501.906    -389.278
  O     -809.842     502.807    -388.234
  C     -808.880     500.589    -388.769
  N     -805.381     500.157    -385.150
  C     -806.738     499.883    -385.128
  N     -807.244     499.444    -383.950
  N     -807.530     500.024    -386.165
  C     -806.888     500.453    -387.272
  C     -805.564     500.765    -387.427
  C     -804.703     500.625    -386.270
  O     -803.497     500.867    -386.236
  N     -805.303     501.208    -388.706
  C     -806.468     501.150    -389.317
  N     -807.460     500.708    -388.489
  O     -807.618     497.320    -393.657
  O     -807.461     499.871    -393.644
  H     -809.010     503.194    -387.896
  H     -806.766     499.682    -394.302
  H     -804.823     500.057    -384.331
  H     -806.641     501.430    -390.348
  H     -809.364     500.238    -387.846
  H     -808.780     502.415    -389.952
  H     -806.693     499.303    -383.125
  H     -810.974     502.115    -390.850
  H     -808.233     499.210    -383.911
  H     -811.026     499.312    -390.511
  H     -810.608     500.473    -392.701
  H     -808.932     500.767    -392.190
  P     -813.271     501.555    -389.698
  C     -814.768     500.573    -387.846
  O     -814.262     500.408    -389.162
  O     -813.393     501.875    -391.145
  O     -813.680     502.812    -388.780
  H     -814.286     503.372    -389.293
  H     -815.411     499.752    -387.605
  H     -815.321     501.487    -387.788
  H     -813.954     500.604    -387.152

 6  7  8  9  10  11  12  13  14  15  26  29  33  34 0
 6-311+G(2d,p)
 ****
 36  38  39  40  41 0
 6-311+G(2d,p)
 ****
 1  2  3  4  5  16  17  18  19  20  21  22  23  24  25 0
 3-21G
 ****
 27  28  30  31  32  35  37  42  43  44  45  46  47 0
 3-21G
 ****
 48  49 0
 3-21G
 ****


