%nproc=1
%NoSave
%Mem=1900MB
#P OB98/GEN NMR

erre ene a

0 1
  C      -56.121    -239.573    -276.203
  O      -55.269    -238.618    -275.594
  P      -55.866    -237.172    -275.251
  C      -54.581    -235.531    -276.805
  O      -54.705    -236.094    -275.508
  C      -53.366    -234.604    -276.869
  O      -53.562    -233.487    -275.949
  C      -52.041    -235.282    -276.487
  O      -51.006    -234.681    -277.279
  C      -51.872    -234.875    -275.036
  O      -50.535    -234.994    -274.574
  C      -52.404    -233.440    -275.094
  N      -52.729    -232.899    -273.774
  C      -51.715    -232.237    -273.088
  O      -50.575    -232.082    -273.523
  N      -52.037    -231.798    -271.831
  C      -53.209    -232.031    -271.174
  O      -53.391    -231.712    -270.005
  C      -54.241    -232.736    -271.948
  C      -53.960    -233.131    -273.192
  O      -56.007    -237.203    -273.658
  O      -57.161    -236.857    -275.921
  H      -50.506    -234.642    -273.666
  H      -56.931    -237.381    -273.401
  H      -51.318    -231.305    -271.324
  H      -55.192    -232.917    -271.462
  H      -54.696    -233.670    -273.777
  H      -51.670    -232.785    -275.583
  H      -52.504    -235.510    -274.405
  H      -52.049    -236.366    -276.627
  H      -53.300    -234.182    -277.880
  H      -55.481    -234.959    -277.036
  H      -54.494    -236.331    -277.548
  P      -50.936    -235.064    -278.838
  C      -49.260    -237.068    -278.734
  O      -49.497    -235.721    -279.086
  O      -50.813    -233.608    -279.497
  O      -52.117    -235.840    -279.320
  H      -50.195    -233.031    -279.019
  H      -50.152    -237.685    -278.880
  H      -48.955    -237.120    -277.687
  H      -48.455    -237.461    -279.358
  H      -55.579    -240.481    -276.367
  H      -56.471    -239.192    -277.140
  H      -56.956    -239.767    -275.562

 3  4  5  6  7  8  9  10  11  12  13  23  28  29  30  31  32 0
 6-311+G(2d,p)
 ****
 33  34 0
 6-311+G(2d,p)
 ****
 1  2  14  15  16  17  18  19  20  21  22  24  25  26 0
 3-21G
 ****
 27  35  36  37  38  39  40  41  42  43  44  45 0
 3-21G
 ****


