%nproc=1
%NoSave
%Mem=1900MB
#P OB98/GEN NMR

erre ene a

0 1
  C      143.233     -13.354     -58.100
  O      142.119     -12.689     -57.534
  H      144.126     -13.085     -57.531
  H      143.371     -13.046     -59.142
  H      143.089     -14.436     -58.045
  P      140.703     -12.923     -58.252
  C      139.724     -12.246     -60.538
  O      140.859     -12.202     -59.681
  C      139.858     -11.209     -61.655
  O      139.719      -9.886     -61.075
  C      141.208     -11.262     -62.377
  O      141.007     -11.011     -63.768
  C      141.987     -10.113     -61.759
  O      143.002      -9.615     -62.628
  C      140.872      -9.112     -61.449
  N      143.956      -5.249     -60.185
  C      143.707      -5.855     -61.365
  N      142.850      -6.872     -61.617
  C      142.188      -7.223     -60.500
  C      142.339      -6.700     -59.227
  C      143.280      -5.664     -59.084
  N      143.562      -5.057     -57.882
  N      141.511      -7.352     -58.334
  C      140.862      -8.247     -59.059
  N      141.251      -8.216     -60.371
  O      139.502     -12.523     -57.462
  O      140.786     -14.474     -58.636
  H      142.598      -9.435     -63.503
  H      141.659     -14.704     -59.008
  H      144.267      -5.482     -62.217
  H      140.118      -8.942     -58.681
  H      140.612      -8.491     -62.315
  H      142.472     -10.452     -60.836
  H      141.715     -12.216     -62.243
  H      139.024     -11.337     -62.355
  H      138.810     -12.051     -59.966
  H      144.243      -4.314     -57.873
  H      143.055      -5.342     -57.054
  H      139.660     -13.255     -60.963
  P      141.163     -12.233     -64.796
  C      143.038     -13.833     -65.564
  O      142.719     -12.606     -64.914
  O      140.435     -12.094     -66.089
  O      140.583     -13.468     -63.951
  H      140.091     -14.061     -64.551
  H      144.100     -13.964     -65.577
  H      142.669     -13.811     -66.568
  H      142.585     -14.645     -65.035

 6  7  8  9  10  11  12  13  14  15  25  28  32  33  34  35 0
 6-311+G(2d,p)
 ****
 36  39  40 0
 6-311+G(2d,p)
 ****
 1  2  3  4  5  16  17  18  19  20  21  22  23  24 0
 3-21G
 ****
 26  27  29  30  31  37  38  41  42  43  44  45  46  47 0
 3-21G
 ****
 48 0
 3-21G
 ****


