%nproc=1
%NoSave
%Mem=1900MB
#P OB98/GEN NMR

erre ene a

0 1
  C      -28.661      76.581     177.789
  O      -28.901      75.227     177.391
  P      -30.423      74.720     177.384
  C      -30.277      73.871     174.924
  O      -30.569      73.563     176.284
  C      -29.777      72.624     174.195
  O      -28.501      72.195     174.707
  C      -30.694      71.425     174.362
  O      -31.822      71.541     173.513
  C      -29.773      70.262     174.009
  O      -29.813      69.964     172.602
  C      -28.379      70.790     174.418
  N      -27.812      70.065     175.546
  C      -27.437      68.741     175.293
  O      -27.612      68.244     174.179
  N      -26.899      68.007     176.322
  C      -26.771      68.539     177.498
  N      -26.235      67.760     178.480
  C      -27.182      69.925     177.811
  C      -27.693      70.625     176.800
  O      -31.214      75.953     176.734
  O      -30.953      74.376     178.738
  H      -29.103      69.308     172.449
  H      -32.110      76.015     177.115
  H      -27.062      70.323     178.809
  H      -28.020      71.649     176.936
  H      -27.678      70.706     173.576
  H      -30.063      69.350     174.536
  H      -31.014      71.338     175.411
  H      -29.664      72.863     173.127
  H      -25.968      66.818     178.229
  H      -29.523      74.660     174.868
  H      -26.099      68.070     179.428
  H      -31.183      74.270     174.451
  P      -33.261      71.710     174.199
  C      -33.803      73.102     172.106
  O      -34.252      72.100     172.996
  O      -33.102      73.115     174.961
  O      -33.717      70.627     175.115
  H      -33.889      73.291     175.506
  H      -34.462      73.122     171.236
  H      -32.781      72.895     171.774
  H      -33.843      74.079     172.599
  H      -27.611      76.784     177.748
  H      -29.014      76.727     178.789
  H      -29.179      77.244     177.128

 3  4  5  6  7  8  9  10  11  12  13  21  23  27  28  29  30  32 0
 6-311+G(2d,p)
 ****
 34  35 0
 6-311+G(2d,p)
 ****
 1  2  14  15  16  17  18  19  20  22  24  25  26 0
 3-21G
 ****
 31  33  36  37  38  39  40  41  42  43  44  45  46 0
 3-21G
 ****


