%nproc=1
%NoSave
%Mem=1900MB
#P OB98/GEN NMR

erre ene a

0 1
  C       -4.055      20.550      30.486
  O       -4.855      19.424      30.193
  H       -4.596      21.186      31.193
  H       -3.863      21.125      29.577
  H       -3.109      20.248      30.941
  P       -4.243      18.257      29.280
  C       -4.731      19.819      27.289
  O       -4.799      18.492      27.794
  C       -5.577      19.939      26.025
  O       -5.460      21.268      25.468
  C       -5.160      18.983      24.912
  O       -5.596      17.667      25.188
  C       -5.821      19.649      23.714
  O       -7.222      19.340      23.660
  C       -5.607      21.147      24.033
  N       -4.453      21.719      23.336
  C       -4.512      21.713      21.947
  O       -5.463      21.259      21.314
  N       -3.411      22.211      21.302
  C       -2.251      22.615      21.898
  O       -1.217      22.844      21.280
  C       -2.275      22.669      23.368
  C       -3.352      22.210      24.011
  O       -4.406      16.870      29.804
  O       -2.696      18.656      29.148
  H       -2.170      18.110      29.762
  H       -7.288      18.372      23.544
  H       -3.424      22.168      20.292
  H       -1.398      23.045      23.879
  H       -3.380      22.212      25.095
  H       -6.495      21.729      23.756
  H       -5.385      19.325      22.767
  H       -4.073      19.014      24.778
  H       -6.627      19.780      26.300
  H       -3.686      20.049      27.052
  H       -5.081      20.514      28.059
  P       -4.565      16.446      25.237
  C       -4.129      16.449      22.712
  O       -4.609      15.699      23.820
  O       -4.709      15.544      26.418
  O       -3.124      17.147      25.230
  H       -2.600      16.813      25.985
  H       -4.203      15.859      21.823
  H       -3.106      16.716      22.878
  H       -4.716      17.337      22.601

 6  7  8  9  10  11  12  13  14  15  16  27  31  32  33  34  35 0
 6-311+G(2d,p)
 ****
 36  37 0
 6-311+G(2d,p)
 ****
 1  2  3  4  5  17  18  19  20  21  22  23  24  25 0
 3-21G
 ****
 26  28  29  30  38  39  40  41  42  43  44  45 0
 3-21G
 ****


