%nproc=1
%NoSave
%Mem=1900MB
#P OB98/GEN NMR

erre ene a

0 1
  C      -25.352    -478.456     -43.982
  O      -26.699    -478.823     -43.766
  H      -24.814    -479.318     -44.387
  H      -24.887    -478.162     -43.036
  H      -25.293    -477.635     -44.700
  P      -27.666    -477.681     -43.187
  C      -26.987    -475.180     -43.453
  O      -27.406    -476.377     -44.086
  C      -26.985    -474.018     -44.457
  O      -26.120    -474.370     -45.579
  C      -28.371    -473.706     -45.051
  O      -28.401    -472.310     -45.388
  C      -28.355    -474.538     -46.328
  O      -29.394    -474.155     -47.195
  C      -26.919    -474.279     -46.779
  N      -27.679    -476.186     -51.466
  C      -28.297    -475.193     -50.788
  N      -28.030    -474.736     -49.547
  C      -26.988    -475.392     -49.005
  C      -26.252    -476.418     -49.580
  C      -26.638    -476.820     -50.874
  N      -26.013    -477.834     -51.568
  N      -25.259    -476.848     -48.717
  C      -25.395    -476.092     -47.642
  N      -26.433    -475.210     -47.770
  O      -26.998    -477.314     -41.779
  O      -29.102    -478.068     -43.039
  H      -29.388    -474.695     -48.013
  H      -27.431    -477.817     -41.063
  H      -29.119    -474.711     -51.307
  H      -24.783    -476.153     -46.753
  H      -26.795    -473.269     -47.183
  H      -28.504    -475.599     -46.100
  H      -29.196    -473.937     -44.374
  H      -26.545    -473.135     -43.981
  H      -25.977    -475.328     -43.055
  H      -27.665    -474.944     -42.626
  H      -26.357    -478.073     -52.480
  H      -25.247    -478.327     -51.128
  P      -29.286    -471.306     -44.496
  C      -28.819    -469.198     -43.008
  O      -28.296    -470.331     -43.692
  O      -29.812    -472.273     -43.329
  O      -30.429    -470.650     -45.196
  H      -30.666    -471.944     -42.991
  H      -28.020    -468.668     -42.532
  H      -29.523    -469.521     -42.269
  H      -29.307    -468.553     -43.708

 6  7  8  9  10  11  12  13  14  15  25  28  32  33  34  35 0
 6-311+G(2d,p)
 ****
 36  37  40 0
 6-311+G(2d,p)
 ****
 1  2  3  4  5  16  17  18  19  20  21  22  23  24 0
 3-21G
 ****
 26  27  29  30  31  38  39 41  42  43  44  45  46  47  48 0
 3-21G
 ****


