%nproc=1
%NoSave
%Mem=1900MB
#P OB98/GEN NMR

erre ene a

0 1
  C       78.243     235.835     419.033
  O       77.900     236.876     419.921
  H       78.579     236.273     418.089
  H       77.364     235.213     418.833
  H       79.049     235.218     419.434
  P       77.653     236.529     421.464
  C       75.894     238.345     421.983
  O       77.231     237.905     422.178
  C       75.831     239.868     421.859
  O       76.340     240.464     423.091
  C       76.666     240.434     420.700
  O       76.011     241.623     420.238
  C       77.963     240.782     421.396
  O       78.742     241.678     420.629
  C       77.439     241.319     422.731
  N       78.472     241.355     423.766
  C       78.978     242.607     424.097
  O       78.621     243.649     423.544
  N       79.945     242.630     425.059
  C       80.496     241.535     425.664
  O       81.387     241.610     426.500
  C       79.953     240.233     425.242
  C       78.979     240.205     424.328
  O       78.751     235.785     422.145
  O       76.282     235.699     421.467
  H       79.667     241.692     420.955
  H       76.276     235.064     422.208
  H       80.315     243.532     425.320
  H       80.374     239.347     425.691
  H       78.559     239.261     423.996
  H       77.047     242.341     422.611
  H       78.566     239.885     421.560
  H       76.795     239.725     419.879
  H       74.780     240.172     421.772
  H       75.303     238.015     422.852
  H       75.483     237.878     421.082
  P       75.362     241.730     418.776
  C       75.827     244.166     418.072
  O       74.855     243.233     418.544
  O       74.335     240.686     418.483
  O       76.602     241.601     417.769
  H       76.304     241.220     416.922
  H       75.372     245.128     417.957
  H       76.209     243.837     417.128
  H       76.629     244.233     418.777

 6  7  8  9  10  11  12  13  14  15  16  26  31  32  33  34  35 0
 6-311+G(2d,p)
 ****
 36  37 0
 6-311+G(2d,p)
 ****
 1  2  3  4  5  17  18  19  20  21  22  23  24  25 0
 3-21G
 ****
 27  28  29  30  38  39  40  41  42  43  44  45 0
 3-21G
 ****


