%nproc=1
%NoSave
%Mem=1900MB
#P OB98/GEN NMR

erre ene a

0 1
  C     -221.927    -130.101     360.688
  O     -220.996    -129.439     359.856
  H     -222.927    -129.981     360.261
  H     -221.923    -129.665     361.691
  H     -221.698    -131.168     360.747
  P     -219.450    -129.467     360.276
  C     -218.116    -128.672     362.338
  O     -219.399    -128.953     361.794
  C     -218.121    -127.307     363.012
  O     -219.390    -127.065     363.651
  C     -217.053    -127.144     364.092
  O     -215.797    -126.840     363.508
  C     -217.639    -125.987     364.888
  O     -217.418    -124.753     364.181
  C     -219.137    -126.341     364.887
  N     -221.404    -126.375     369.420
  C     -221.085    -125.312     368.594
  N     -221.374    -124.082     369.069
  N     -220.517    -125.447     367.424
  C     -220.223    -126.729     367.117
  C     -220.474    -127.862     367.858
  C     -221.155    -127.709     369.125
  O     -221.472    -128.623     369.878
  N     -219.972    -128.984     367.247
  C     -219.452    -128.533     366.123
  N     -219.566    -127.169     366.003
  O     -218.501    -128.751     359.363
  O     -219.109    -131.024     360.400
  H     -217.888    -124.059     364.677
  H     -218.756    -131.375     359.564
  H     -221.824    -126.206     370.318
  H     -218.989    -129.150     365.363
  H     -219.774    -125.451     364.881
  H     -217.198    -125.881     365.878
  H     -221.539    -123.914     370.053
  H     -217.000    -128.021     364.744
  H     -221.103    -123.290     368.503
  H     -218.006    -126.542     362.231
  H     -217.397    -128.689     361.512
  H     -217.834    -129.441     363.064
  P     -214.474    -127.650     363.920
  C     -213.229    -128.048     366.150
  O     -214.296    -127.381     365.489
  O     -213.270    -127.345     363.096
  O     -214.912    -129.184     363.881
  H     -214.801    -129.605     362.992
  H     -213.227    -127.779     367.186
  H     -212.299    -127.761     365.706
  H     -213.357    -129.106     366.056

 6  7  8  9  10  11  12  13  14  15  26  29  33  34 0
 6-311+G(2d,p)
 ****
 36  38  39  40  41 0
 6-311+G(2d,p)
 ****
 1  2  3  4  5  16  17  18  19  20  21  22  23  24  25 0
 3-21G
 ****
 27  28  30  31  32  35  37  42  43  44  45  46  47 0
 3-21G
 ****
 48  49 0
 3-21G
 ****


