%nproc=1
%NoSave
%Mem=1900MB
#P OB98/GEN NMR

erre ene a

0 1
  C      662.853    -692.200     -84.024
  O      663.472    -690.932     -84.110
  H      663.609    -692.987     -83.922
  H      662.207    -692.214     -83.135
  H      662.239    -692.386     -84.906
  P      664.473    -690.721     -85.353
  C      663.359    -688.491     -86.090
  O      663.686    -689.834     -86.444
  C      663.411    -687.597     -87.307
  O      664.647    -687.887     -88.025
  C      662.267    -687.800     -88.313
  O      661.662    -686.537     -88.644
  C      662.896    -688.380     -89.561
  O      662.283    -687.946     -90.745
  C      664.349    -687.873     -89.431
  N      667.806    -687.897     -93.179
  C      667.328    -686.893     -92.412
  N      666.454    -686.966     -91.368
  C      666.140    -688.255     -91.107
  C      666.575    -689.387     -91.773
  C      667.443    -689.168     -92.868
  N      667.889    -690.186     -93.674
  N      666.042    -690.540     -91.222
  C      665.228    -690.078     -90.262
  N      665.267    -688.710     -90.149
  O      664.534    -692.184     -86.019
  O      665.827    -690.236     -84.971
  H      661.341    -688.238     -90.732
  H      665.456    -692.502     -85.999
  H      667.660    -685.898     -92.694
  H      664.602    -690.698     -89.633
  H      664.461    -686.844     -89.789
  H      662.838    -689.472     -89.489
  H      661.483    -688.482     -87.909
  H      663.455    -686.568     -86.977
  H      664.078    -688.132     -85.328
  H      668.414    -689.950     -94.518
  H      667.536    -691.127     -93.530
  H      662.352    -688.488     -85.652
  P      660.626    -685.940     -87.577
  C      661.603    -683.534     -87.748
  O      661.299    -684.635     -86.889
  O      660.603    -687.004     -86.391
  O      659.233    -685.711     -88.126
  H      659.702    -687.350     -86.251
  H      662.039    -682.744     -87.174
  H      660.704    -683.184     -88.211
  H      662.293    -683.850     -88.502

 6  7  8  9  10  11  12  13  14  15  25  28  32  33  34  35 0
 6-311+G(2d,p)
 ****
 36  39  40 0
 6-311+G(2d,p)
 ****
 1  2  3  4  5  16  17  18  19  20  21  22  23  24 0
 3-21G
 ****
 26  27  29  30  31  37  38  41  42  43  44  45  46  47  48 0
 3-21G
 ****


