%nproc=1
%NoSave
%Mem=1900MB
#P OB98/GEN NMR

erre ene a

0 1
  C     -226.473     102.109     -42.091
  O     -225.326     102.530     -41.384
  H     -227.343     102.641     -41.699
  H     -226.627     101.036     -41.948
  H     -226.372     102.332     -43.157
  P     -223.902     101.993     -41.897
  C     -222.986     104.371     -42.403
  O     -223.338     103.097     -42.921
  C     -221.476     104.453     -42.170
  O     -220.807     104.484     -43.457
  C     -221.044     105.693     -41.385
  O     -219.981     105.328     -40.502
  C     -220.511     106.632     -42.453
  O     -219.565     107.570     -41.945
  C     -219.947     105.639     -43.480
  N     -219.875     106.235     -44.812
  C     -218.650     106.793     -45.185
  O     -217.698     106.782     -44.402
  N     -218.544     107.408     -46.407
  C     -219.595     107.528     -47.158
  N     -219.434     108.174     -48.344
  C     -220.924     107.013     -46.776
  C     -220.989     106.377     -45.606
  O     -224.290     100.772     -42.854
  O     -222.945     101.598     -40.825
  H     -218.797     107.070     -41.595
  H     -223.603     100.079     -42.837
  H     -221.777     107.163     -47.423
  H     -221.925     105.971     -45.238
  H     -218.942     105.311     -43.186
  H     -221.345     107.196     -42.893
  H     -221.856     106.143     -40.806
  H     -221.154     103.537     -41.662
  H     -218.508     108.530     -48.564
  H     -223.502     104.522     -41.449
  H     -220.191     108.365     -48.987
  H     -223.308     105.150     -43.103
  P     -219.736     106.275     -39.230
  C     -221.472     105.050     -37.737
  O     -221.069     106.274     -38.341
  O     -219.706     107.744     -39.867
  O     -218.477     105.970     -38.488
  H     -218.797     108.095     -39.852
  H     -222.372     105.207     -37.180
  H     -220.701     104.706     -37.080
  H     -221.646     104.317     -38.497

 6  7  8  9  10  11  12  13  14  15  16  26  30  31  32  33  35 0
 6-311+G(2d,p)
 ****
 37  38 0
 6-311+G(2d,p)
 ****
 1  2  3  4  5  17  18  19  20  21  22  23  24  25 0
 3-21G
 ****
 27  28  29  34  36  39  40  41  42  43  44  45  46 0
 3-21G
 ****


