%nproc=1
%NoSave
%Mem=1900MB
#P OB98/GEN NMR

erre ene a

0 1
  C       14.435      -7.752     -28.217
  O       14.653      -7.425     -26.861
  H       15.404      -7.870     -28.708
  H       13.882      -6.955     -28.723
  H       13.888      -8.694     -28.297
  P       13.380      -7.084     -25.945
  C       13.475      -9.597     -25.326
  O       12.661      -8.505     -25.723
  C       12.829     -10.340     -24.159
  O       11.454     -10.666     -24.449
  C       13.478     -11.677     -23.812
  O       14.721     -11.544     -23.144
  C       12.399     -12.270     -22.922
  O       12.447     -11.645     -21.626
  C       11.118     -11.859     -23.687
  N       10.622     -12.909     -24.575
  C        9.347     -13.416     -24.296
  O        8.696     -12.983     -23.346
  N        8.852     -14.431     -25.078
  C        9.573     -14.911     -26.042
  N        9.055     -15.948     -26.757
  C       10.913     -14.396     -26.382
  C       11.374     -13.411     -25.614
  O       12.490      -5.986     -26.432
  O       13.997      -6.806     -24.495
  H       11.630     -11.896     -21.159
  H       13.248      -6.577     -23.892
  H       11.476     -14.837     -27.191
  H       12.358     -12.991     -25.791
  H       10.320     -11.581     -22.989
  H       12.510     -13.347     -22.767
  H       13.579     -12.304     -24.704
  H       12.823      -9.661     -23.298
  H        8.153     -16.302     -26.469
  H       14.458      -9.206     -25.046
  H        9.648     -16.547     -27.321
  H       13.595     -10.299     -26.157
  P       15.822     -12.692     -23.370
  C       17.043     -11.022     -24.954
  O       16.574     -12.343     -24.744
  O       14.934     -13.968     -23.737
  O       16.743     -12.942     -22.218
  H       14.747     -14.506     -22.943
  H       17.517     -10.960     -25.911
  H       17.748     -10.768     -24.190
  H       16.218     -10.341     -24.919

 6  7  8  9  10  11  12  13  14  15  16  26  30  31  32  33  35 0
 6-311+G(2d,p)
 ****
 37  38 0
 6-311+G(2d,p)
 ****
 1  2  3  4  5  17  18  19  20  21  22  23  24  25 0
 3-21G
 ****
 27  28  29  34  36  39  40  41  42  43  44  45  46 0
 3-21G
 ****


