%nproc=1
%NoSave
%Mem=1900MB
#P OB98/GEN NMR

erre ene a

0 1
  C      627.786     526.242      40.400
  O      627.668     526.038      39.004
  P      628.679     526.747      37.983
  C      626.665     527.648      36.643
  O      627.854     527.980      37.355
  C      625.899     528.911      36.250
  O      625.545     529.678      37.414
  C      626.680     529.858      35.349
  O      626.707     529.380      34.011
  C      625.907     531.153      35.544
  O      624.744     531.198      34.702
  C      625.496     531.066      37.028
  N      626.335     531.895      37.890
  C      626.255     533.271      37.676
  O      625.532     533.727      36.779
  N      627.034     534.107      38.444
  C      627.835     533.599      39.328
  N      628.586     534.473      40.054
  C      627.969     532.150      39.567
  C      627.203     531.366      38.819
  O      629.333     525.841      36.995
  O      629.724     527.483      38.956
  H      624.188     530.435      34.961
  H      630.342     526.836      39.373
  H      628.660     531.777      40.308
  H      627.240     530.283      38.924
  H      624.455     531.386      37.164
  H      626.509     532.032      35.302
  H      627.697     529.978      35.737
  H      624.966     528.602      35.747
  H      628.485     535.464      39.840
  H      626.036     527.031      37.290
  H      629.269     534.189      40.740
  H      626.926     527.057      35.752
  P      627.454     530.227      32.883
  C      625.367     530.461      31.406
  O      626.355     531.139      32.150
  O      628.335     529.436      31.966
  O      628.318     531.290      33.712
  H      629.215     531.342      33.329
  H      624.517     531.138      31.248
  H      625.017     529.567      31.934
  H      625.773     530.173      30.435
  H      627.025     525.687      40.907
  H      627.674     527.283      40.619
  H      628.748     525.910      40.729

 3  4  5  6  7  8  9  10  11  12  13  23  27  28  29  30  32 0
 6-311+G(2d,p)
 ****
 34  35 0
 6-311+G(2d,p)
 ****
 1  2  14  15  16  17  18  19  20  21  22  24  25  26 0
 3-21G
 ****
 31  33  36  37  38  39  40  41  42  43  44  45  46 0
 3-21G
 ****


