%nproc=1
%NoSave
%Mem=1900MB
#P OB98/GEN NMR

erre ene a

0 1
  C     -189.638     -87.623     -82.945
  O     -190.486     -87.351     -84.057
  P     -189.950     -87.683     -85.529
  C     -190.503     -85.373     -86.697
  O     -189.556     -86.330     -86.281
  C     -189.907     -84.530     -87.837
  O     -188.802     -83.742     -87.347
  C     -189.377     -85.371     -88.996
  O     -190.390     -85.681     -89.933
  C     -188.284     -84.482     -89.554
  O     -188.854     -83.430     -90.354
  C     -187.674     -83.901     -88.254
  N     -186.620     -84.684     -87.570
  C     -185.758     -84.054     -86.677
  O     -185.798     -82.856     -86.405
  N     -184.825     -84.856     -86.074
  C     -184.773     -86.218     -86.134
  O     -183.949     -86.892     -85.525
  C     -185.796     -86.848     -86.972
  C     -186.650     -86.071     -87.648
  O     -191.252     -88.187     -86.304
  O     -188.847     -88.696     -85.569
  H     -189.518     -82.976     -89.805
  H     -191.157     -89.123     -86.560
  H     -184.147     -84.407     -85.480
  H     -185.823     -87.928     -87.013
  H     -187.412     -86.527     -88.273
  H     -187.255     -82.904     -88.439
  H     -187.620     -85.037     -90.212
  H     -188.904     -86.284     -88.617
  H     -190.680     -83.843     -88.200
  H     -190.794     -84.726     -85.867
  H     -191.413     -85.879     -87.041
  P     -191.244     -87.026     -89.773
  C     -190.919     -88.194     -92.032
  O     -190.502     -88.120     -90.684
  O     -192.716     -86.896     -89.983
  O     -190.891     -87.517     -88.286
  H     -191.580     -87.217     -87.648
  H     -190.235     -88.854     -92.574
  H     -190.895     -87.203     -92.496
  H     -191.929     -88.603     -92.089
  H     -190.138     -87.348     -82.040
  H     -188.734     -87.058     -83.039
  H     -189.405     -88.667     -82.921

 3  4  5  6  7  8  9  10  11  12  13  23  28  29  30  31  32 0
 6-311+G(2d,p)
 ****
 33  34 0
 6-311+G(2d,p)
 ****
 1  2  14  15  16  17  18  19  20  21  22  24  25  26  27 0
 3-21G
 ****
 35  36  37  38  39  40  41  42  43  44  45 0
 3-21G
 ****


