%nproc=1
%NoSave
%Mem=1900MB
#P OB98/GEN NMR

erre ene a

0 1
  C     -140.369     -44.148     217.939
  O     -140.492     -44.521     219.298
  H     -141.043     -44.769     217.344
  H     -139.346     -44.307     217.587
  H     -140.650     -43.100     217.806
  P     -139.545     -43.809     220.375
  C     -141.483     -42.454     221.429
  O     -140.241     -42.410     220.733
  C     -141.359     -41.784     222.794
  O     -140.681     -40.517     222.671
  C     -142.693     -41.479     223.464
  O     -143.273     -42.653     223.987
  C     -142.261     -40.450     224.497
  O     -141.648     -41.082     225.628
  C     -141.215     -39.637     223.694
  N     -141.751     -38.418     223.097
  C     -141.138     -37.220     223.489
  O     -140.211     -37.235     224.297
  N     -141.609     -36.042     222.960
  C     -142.571     -36.060     222.089
  N     -142.986     -34.857     221.600
  C     -143.220     -37.302     221.625
  C     -142.777     -38.430     222.175
  O     -138.095     -43.704     220.015
  O     -139.759     -44.671     221.707
  H     -141.321     -40.357     226.202
  H     -139.075     -45.363     221.780
  H     -144.011     -37.267     220.891
  H     -143.199     -39.389     221.887
  H     -140.372     -39.358     224.337
  H     -143.098     -39.859     224.871
  H     -143.372     -40.990     222.751
  H     -140.737     -42.428     223.435
  H     -142.496     -34.033     221.933
  H     -141.745     -43.513     221.552
  H     -143.606     -34.760     220.810
  H     -142.271     -41.972     220.841
  P     -144.798     -42.694     224.484
  C     -145.713     -44.196     222.603
  O     -145.684     -42.886     223.153
  O     -145.212     -41.555     225.352
  O     -144.927     -44.123     225.194
  H     -144.512     -44.096     226.096
  H     -146.329     -44.202     221.728
  H     -146.113     -44.877     223.325
  H     -144.719     -44.495     222.342

 6  7  8  9  10  11  12  13  14  15  16  26  30  31  32  33  35 0
 6-311+G(2d,p)
 ****
 37  38 0
 6-311+G(2d,p)
 ****
 1  2  3  4  5  17  18  19  20  21  22  23  24  25 0
 3-21G
 ****
 27  28  29  34  36  39  40  41  42  43  44  45  46 0
 3-21G
 ****


