%nproc=1
%NoSave
%Mem=1900MB
#P OB98/GEN NMR

erre ene a

0 1
  C      -43.335     197.202     303.449
  O      -44.011     198.367     303.890
  H      -42.518     197.500     302.785
  H      -44.011     196.548     302.891
  H      -42.918     196.662     304.302
  P      -45.349     198.185     304.752
  C      -46.985     198.942     302.894
  O      -46.504     197.862     303.691
  C      -47.843     198.407     301.750
  O      -47.019     197.710     300.793
  C      -48.893     197.404     302.204
  O      -49.980     198.058     302.831
  C      -49.213     196.712     300.893
  O      -50.115     197.491     300.098
  C      -47.816     196.637     300.234
  N      -47.166     195.346     300.431
  C      -47.670     194.284     299.670
  O      -48.599     194.465     298.885
  N      -47.112     193.039     299.838
  C      -46.135     192.871     300.672
  N      -45.629     191.614     300.791
  C      -45.567     193.967     301.483
  C      -46.128     195.164     301.316
  O      -45.686     199.281     305.716
  O      -45.133     196.781     305.492
  H      -50.937     197.564     300.622
  H      -44.690     196.912     306.349
  H      -44.748     193.781     302.164
  H      -45.769     196.024     301.872
  H      -47.888     196.826     299.157
  H      -49.674     195.738     301.056
  H      -48.443     196.665     302.878
  H      -48.307     199.260     301.236
  H      -46.058     190.893     300.221
  H      -46.111     199.468     302.498
  H      -44.817     191.383     301.339
  H      -47.566     199.644     303.504
  P      -50.754     197.365     304.052
  C      -52.501     196.464     302.378
  O      -51.562     196.138     303.402
  O      -51.563     198.288     304.900
  O      -49.577     196.630     304.859
  H      -49.028     197.278     305.362
  H      -52.971     195.569     302.027
  H      -51.992     196.941     301.566
  H      -53.243     197.126     302.772

 6  7  8  9  10  11  12  13  14  15  16  26  30  31  32  33  35 0
 6-311+G(2d,p)
 ****
 37  38 0
 6-311+G(2d,p)
 ****
 1  2  3  4  5  17  18  19  20  21  22  23  24  25 0
 3-21G
 ****
 27  28  29  34  36  39  40  41  42  43  44  45  46 0
 3-21G
 ****


