%nproc=1
%NoSave
%Mem=1900MB
#P OB98/GEN NMR

erre ene a

0 1
  C     -249.695     596.019     740.432
  O     -249.639     595.628     739.076
  H     -250.740     596.214     740.697
  H     -249.119     596.936     740.577
  H     -249.307     595.231     741.081
  P     -248.223     595.099     738.536
  C     -248.955     595.574     736.089
  O     -247.988     595.797     737.106
  C     -249.008     596.774     735.144
  O     -249.481     597.949     735.842
  C     -247.661     597.154     734.531
  O     -247.340     596.349     733.406
  C     -247.931     598.596     734.128
  O     -248.718     598.614     732.916
  C     -248.769     599.102     735.310
  N     -246.319     603.286     736.806
  C     -247.006     603.029     735.639
  N     -247.034     604.027     734.723
  N     -247.608     601.898     735.370
  C     -247.479     600.982     736.372
  C     -246.829     601.122     737.578
  C     -246.182     602.383     737.859
  O     -245.585     602.671     738.892
  N     -246.941     599.986     738.336
  C     -247.623     599.152     737.579
  N     -247.978     599.712     736.369
  O     -248.519     593.568     738.153
  O     -247.088     595.207     739.499
  H     -249.581     598.209     733.134
  H     -247.731     593.034     738.356
  H     -245.871     604.175     736.953
  H     -247.898     598.142     737.858
  H     -249.516     599.838     735.004
  H     -247.015     599.151     733.929
  H     -246.550     604.907     734.837
  H     -246.861     597.131     735.288
  H     -247.559     603.873     733.866
  H     -249.739     596.548     734.351
  H     -249.937     595.435     736.549
  H     -248.687     594.665     735.538
  P     -245.797     595.970     733.168
  C     -246.089     595.383     730.650
  O     -245.514     596.269     731.618
  O     -245.798     594.373     733.251
  O     -244.843     596.584     734.141
  H     -244.902     594.043     733.487
  H     -245.817     595.704     729.666
  H     -247.155     595.392     730.746
  H     -245.725     594.390     730.814

 6  7  8  9  10  11  12  13  14  15  26  29  33  34 0
 6-311+G(2d,p)
 ****
 36  38  39  40  41 0
 6-311+G(2d,p)
 ****
 1  2  3  4  5  16  17  18  19  20  21  22  23  24  25 0
 3-21G
 ****
 27  28  30  31  32  35  37  42  43  44  45  46  47 0
 3-21G
 ****
 48  49 0
 3-21G
 ****


