%nproc=1
%NoSave
%Mem=1900MB
#P OB98/GEN NMR

erre ene a

0 1
  C      -77.125      94.772      -1.582
  O      -77.636      93.522      -2.052
  P      -78.589      92.661      -1.093
  C      -80.774      94.023      -1.224
  O      -80.108      92.823      -1.595
  C      -82.298      93.825      -1.234
  O      -82.708      93.068      -2.412
  C      -82.798      93.052      -0.005
  O      -84.110      93.507       0.374
  C      -82.935      91.636      -0.530
  O      -83.819      90.858       0.278
  C      -83.427      91.905      -1.950
  N      -84.506      86.982      -2.887
  C      -84.957      87.838      -1.942
  N      -84.643      89.140      -1.768
  C      -83.776      89.551      -2.711
  C      -83.235      88.795      -3.743
  C      -83.629      87.448      -3.811
  N      -83.147      86.571      -4.756
  N      -82.377      89.557      -4.510
  C      -82.361      90.737      -3.921
  N      -83.214      90.791      -2.852
  O      -78.385      92.860       0.373
  O      -78.250      91.150      -1.517
  H      -83.983      90.019      -0.190
  H      -78.193      90.598      -0.714
  H      -85.661      87.419      -1.227
  H      -81.743      91.574      -4.219
  H      -84.496      92.147      -1.971
  H      -81.953      91.146      -0.535
  H      -82.141      93.109       0.868
  H      -82.783      94.808      -1.301
  H      -80.499      94.826      -1.912
  H      -83.394      85.595      -4.656
  H      -82.385      86.864      -5.353
  H      -80.421      94.341      -0.235
  P      -84.353      93.722       1.955
  C      -83.271      95.975       2.726
  O      -84.386      95.308       2.180
  O      -83.401      92.952       2.812
  O      -85.877      93.262       2.118
  H      -86.495      93.672       1.489
  H      -83.446      97.054       2.677
  H      -82.362      95.745       2.162
  H      -83.138      95.688       3.775
  H      -76.512      95.214      -2.339
  H      -76.541      94.610      -0.700
  H      -77.940      95.428      -1.355

 3  4  5  6  7  8  9  10  11  12  22  25  29  30  31  32 0
 6-311+G(2d,p)
 ****
 33  36  37 0
 6-311+G(2d,p)
 ****
 1  2  13  14  15  16  17  18  19  20  21  23  24  26 0
 3-21G
 ****
 27  28  34  35  38  39  40  41  42  43  44  45  46  47  48 0
 3-21G
 ****


