%nproc=1
%NoSave
%Mem=1900MB
#P OB98/GEN NMR

erre ene a

0 1
  C      654.257     151.051     -64.194
  O      654.604     150.416     -62.980
  H      653.183     150.919     -64.364
  H      654.802     150.609     -65.028
  H      654.471     152.121     -64.135
  P      656.160     150.456     -62.575
  C      656.139     147.881     -62.425
  O      656.383     149.103     -61.734
  C      655.594     146.819     -61.467
  O      656.632     146.484     -60.506
  C      654.365     147.292     -60.670
  O      653.482     146.183     -60.485
  C      654.964     147.690     -59.325
  O      653.999     147.654     -58.278
  C      656.093     146.665     -59.188
  N      658.087     145.933     -54.553
  C      657.196     145.227     -55.279
  N      656.734     145.484     -56.517
  C      657.339     146.571     -57.037
  C      658.263     147.394     -56.420
  C      658.637     147.045     -55.112
  N      659.524     147.772     -54.358
  N      658.610     148.437     -57.258
  C      657.917     148.244     -58.364
  N      657.117     147.128     -58.265
  O      656.620     151.703     -61.898
  O      656.871     150.121     -63.969
  H      653.204     148.154     -58.569
  H      656.447     149.363     -64.415
  H      656.787     144.341     -54.784
  H      657.943     148.868     -59.249
  H      655.741     145.684     -58.814
  H      655.365     148.702     -59.381
  H      653.841     148.117     -61.142
  H      655.373     145.905     -62.033
  H      657.072     147.511     -62.879
  H      659.736     147.457     -53.418
  H      659.951     148.603     -54.749
  H      655.418     148.081     -63.224
  P      652.241     146.010     -61.475
  C      650.378     146.595     -59.792
  O      650.948     145.585     -60.625
  O      652.489     145.170     -62.687
  O      651.896     147.519     -61.895
  H      651.705     147.561     -62.850
  H      649.528     146.196     -59.279
  H      650.074     147.425     -60.395
  H      651.105     146.921     -59.078

 6  7  8  9  10  11  12  13  14  15  25  28  32  33  34  35 0
 6-311+G(2d,p)
 ****
 36  39  40 0
 6-311+G(2d,p)
 ****
 1  2  3  4  5  16  17  18  19  20  21  22  23  24 0
 3-21G
 ****
 26  27  29  30  31  37  38  41  42  43  44  45  46  47 0
 3-21G
 ****
 48 0
 3-21G
 ****


