%nproc=1
%NoSave
%Mem=1900MB
#P OB98/GEN NMR

erre ene a

0 1
  C       15.264    -136.082     -71.688
  O       14.334    -135.152     -71.180
  H       16.193    -135.551     -71.916
  H       14.892    -136.537     -72.609
  H       15.476    -136.855     -70.946
  P       12.816    -135.622     -70.938
  C       12.475    -135.122     -68.445
  O       12.265    -134.654     -69.773
  C       13.892    -134.813     -67.960
  O       14.145    -133.388     -68.073
  C       14.149    -135.214     -66.502
  O       15.396    -135.907     -66.412
  C       14.231    -133.882     -65.771
  O       14.982    -133.975     -64.565
  C       14.817    -132.981     -66.865
  N       14.629    -131.561     -66.594
  C       15.522    -130.973     -65.693
  O       16.388    -131.657     -65.143
  N       15.391    -129.639     -65.404
  C       14.421    -128.960     -65.926
  N       14.340    -127.644     -65.592
  C       13.426    -129.549     -66.847
  C       13.592    -130.838     -67.139
  O       12.648    -137.080     -70.674
  O       12.027    -135.111     -72.233
  H       14.959    -133.101     -64.115
  H       11.182    -135.617     -72.323
  H       12.628    -128.944     -67.248
  H       12.915    -131.353     -67.813
  H       15.891    -133.171     -66.990
  H       13.219    -133.543     -65.515
  H       13.371    -135.849     -66.086
  H       14.602    -135.303     -68.638
  H       15.042    -127.279     -64.960
  H       12.292    -136.202     -68.421
  H       13.622    -127.021     -65.933
  H       11.756    -134.620     -67.787
  P       15.358    -137.476     -66.751
  C       17.788    -137.893     -67.547
  O       16.832    -138.068     -66.513
  O       15.187    -137.500     -68.343
  O       14.255    -138.212     -66.063
  H       14.257    -137.673     -68.578
  H       18.717    -138.334     -67.252
  H       17.931    -136.848     -67.728
  H       17.437    -138.365     -68.441

 6  7  8  9  10  11  12  13  14  15  16  26  30  31  32  33  35 0
 6-311+G(2d,p)
 ****
 37  38 0
 6-311+G(2d,p)
 ****
 1  2  3  4  5  17  18  19  20  21  22  23  24  25 0
 3-21G
 ****
 27  28  29  34  36  39  40  41  42  43  44  45  46 0
 3-21G
 ****


