%nproc=1
%NoSave
%Mem=1900MB
#P OB98/GEN NMR

erre ene a

0 1
  C     -410.339     136.945    -121.499
  O     -411.427     137.113    -120.596
  P     -412.156     138.558    -120.565
  C     -411.286     140.976    -120.210
  O     -411.075     139.584    -120.000
  C     -410.873     141.764    -118.975
  O     -409.460     141.647    -118.726
  C     -411.137     143.277    -119.078
  O     -412.492     143.604    -118.801
  C     -410.216     143.801    -117.977
  O     -410.855     143.650    -116.692
  C     -409.007     142.876    -118.110
  N     -405.278     146.318    -118.114
  C     -406.066     145.854    -117.061
  N     -405.854     146.435    -115.863
  N     -406.958     144.903    -117.168
  C     -407.063     144.432    -118.450
  C     -406.327     144.781    -119.560
  C     -405.352     145.844    -119.418
  O     -404.679     146.320    -120.314
  N     -406.723     144.065    -120.666
  C     -407.658     143.246    -120.218
  N     -407.926     143.458    -118.888
  O     -413.195     138.409    -119.352
  O     -412.824     138.948    -121.843
  H     -411.701     144.143    -116.748
  H     -413.868     139.114    -119.418
  H     -404.618     147.043    -117.965
  H     -408.178     142.520    -120.818
  H     -408.595     142.594    -117.123
  H     -409.993     144.865    -118.101
  H     -405.232     147.214    -115.712
  H     -410.813     143.660    -120.051
  H     -406.459     146.167    -115.077
  H     -411.408     141.354    -118.106
  H     -412.338     141.147    -120.420
  H     -410.700     141.305    -121.080
  P     -413.099     144.850    -119.608
  C     -413.168     147.405    -119.136
  O     -412.592     146.156    -118.831
  O     -414.668     144.766    -119.269
  O     -412.843     144.815    -121.084
  H     -415.192     145.174    -119.964
  H     -412.913     148.120    -118.357
  H     -414.255     147.324    -119.190
  H     -412.796     147.773    -120.097
  H     -409.955     135.950    -121.414
  H     -409.567     137.646    -121.261
  H     -410.677     137.113    -122.500

 3  4  5  6  7  8  9  10  11  12  23  26  30  31 0
 6-311+G(2d,p)
 ****
 33  35  36  37  38 0
 6-311+G(2d,p)
 ****
 1  2  13  14  15  16  17  18  19  20  21  22  24  25 0
 3-21G
 ****
 27  28  29  32  34  39  40  41  42  43  44  45  46  47  48  49 0
 3-21G
 ****


