%nproc=1
%NoSave
%Mem=1900MB
#P OB98/GEN NMR

erre ene a

0 1
  C      140.964      51.360      -9.387
  O      141.265      50.371      -8.424
  H      141.817      51.466     -10.062
  H      140.779      52.322      -8.899
  H      140.086      51.066      -9.968
  P      140.169      50.142      -7.272
  C      140.775      52.057      -5.605
  O      140.900      50.685      -5.947
  C      141.184      52.264      -4.151
  O      140.148      51.797      -3.260
  C      142.442      51.506      -3.744
  O      143.634      52.139      -4.177
  C      142.302      51.536      -2.234
  O      142.651      52.843      -1.742
  C      140.789      51.267      -2.068
  N      140.472      49.847      -1.903
  C      140.890      49.246      -0.710
  O      141.501      49.893       0.137
  N      140.634      47.908      -0.519
  C      140.007      47.233      -1.431
  N      139.793      45.911      -1.195
  C      139.535      47.831      -2.693
  C      139.798      49.124      -2.862
  O      140.181      48.557      -7.050
  O      138.818      50.718      -7.528
  H      141.977      53.461      -2.078
  H      139.625      48.324      -6.267
  H      139.026      47.225      -3.429
  H      139.483      49.631      -3.767
  H      140.385      51.816      -1.210
  H      142.950      50.818      -1.728
  H      142.410      50.463      -4.078
  H      141.298      53.343      -3.983
  H      140.183      45.516      -0.350
  H      139.732      52.355      -5.752
  H      139.480      45.273      -1.915
  H      141.415      52.664      -6.253
  P      144.587      51.326      -5.182
  C      146.067      50.572      -3.186
  O      146.016      51.188      -4.465
  O      144.863      52.383      -6.350
  O      144.008      50.049      -5.706
  H      144.876      51.947      -7.223
  H      147.079      50.553      -2.839
  H      145.695      49.571      -3.257
  H      145.465      51.128      -2.498

 6  7  8  9  10  11  12  13  14  15  16  26  30  31  32  33  35 0
 6-311+G(2d,p)
 ****
 37  38 0
 6-311+G(2d,p)
 ****
 1  2  3  4  5  17  18  19  20  21  22  23  24  25 0
 3-21G
 ****
 27  28  29  34  36  39  40  41  42  43  44  45  46 0
 3-21G
 ****


