%nproc=1
%NoSave
%Mem=1900MB
#P OB98/GEN NMR

erre ene a

0 1
  C      149.598     329.751      -3.356
  O      149.088     328.911      -2.314
  P      149.905     327.587      -1.918
  C      149.478     326.480      -4.213
  O      150.456     326.899      -3.259
  C      150.148     325.764      -5.410
  O      150.725     324.490      -4.989
  C      149.159     325.473      -6.540
  O      149.827     325.548      -7.825
  C      148.795     324.024      -6.301
  O      148.269     323.407      -7.483
  C      150.137     323.463      -5.819
  N      148.510     318.601      -6.016
  C      148.577     319.570      -6.956
  N      149.056     320.826      -6.839
  C      149.483     321.049      -5.592
  C      149.473     320.171      -4.513
  C      148.957     318.892      -4.768
  N      148.850     317.924      -3.784
  N      150.005     320.769      -3.388
  C      150.269     321.995      -3.753
  N      149.996     322.229      -5.079
  O      149.219     326.657      -0.976
  O      151.245     328.181      -1.262
  H      147.950     322.509      -7.223
  H      151.475     327.648      -0.463
  H      148.210     319.281      -7.936
  H      150.640     322.789      -3.092
  H      150.824     323.283      -6.654
  H      148.018     323.964      -5.513
  H      148.278     326.132      -6.563
  H      150.982     326.383      -5.758
  H      148.910     327.339      -4.558
  H      148.357     317.074      -4.023
  H      149.058     318.166      -2.825
  H      148.758     325.827      -3.717
  P      149.649     326.942      -8.607
  C      147.812     326.985     -10.485
  O      148.131     326.995      -9.102
  O      150.687     327.159      -9.671
  O      149.737     328.017      -7.419
  H      149.142     327.822      -6.664
  H      146.720     326.878     -10.586
  H      148.301     326.132     -10.968
  H      148.142     327.919     -10.942
  H      148.942     330.584      -3.496
  H      149.663     329.191      -4.266
  H      150.571     330.105      -3.085

 3  4  5  6  7  8  9  10  11  12  22  25  29  30  31  32 0
 6-311+G(2d,p)
 ****
 33  36  37 0
 6-311+G(2d,p)
 ****
 1  2  13  14  15  16  17  18  19  20  21  23  24  26 0
 3-21G
 ****
 27  28  34  35  38  39  40  41  42  43  44  45  46  47  48 0
 3-21G
 ****


