%nproc=1
%NoSave
%Mem=1900MB
#P OB98/GEN NMR

erre ene a

0 1
  C      293.130    -130.273    -252.828
  O      292.783    -131.447    -253.534
  H      294.109    -130.420    -252.368
  H      292.400    -130.066    -252.040
  H      293.191    -129.421    -253.512
  P      291.327    -131.528    -254.207
  C      289.071    -132.553    -253.442
  O      290.427    -132.289    -253.111
  C      288.456    -133.511    -252.425
  O      289.029    -134.834    -252.544
  C      288.676    -133.125    -250.964
  O      287.873    -132.034    -250.545
  C      288.290    -134.427    -250.287
  O      286.857    -134.564    -250.280
  C      288.939    -135.465    -251.237
  N      290.255    -135.905    -250.786
  C      290.314    -137.119    -250.095
  O      289.290    -137.768    -249.885
  N      291.527    -137.555    -249.618
  C      292.588    -136.833    -249.801
  N      293.755    -137.286    -249.268
  C      292.581    -135.557    -250.543
  C      291.397    -135.151    -250.999
  O      291.268    -132.097    -255.588
  O      290.757    -130.034    -254.109
  H      286.661    -135.518    -250.270
  H      289.862    -130.030    -254.525
  H      293.493    -134.989    -250.658
  H      291.304    -134.216    -251.537
  H      288.294    -136.344    -251.354
  H      288.628    -134.492    -249.249
  H      289.733    -132.928    -250.770
  H      287.387    -133.603    -252.663
  H      293.717    -138.145    -248.731
  H      289.043    -132.978    -254.451
  H      294.548    -136.670    -249.125
  H      288.493    -131.623    -253.434
  P      288.302    -131.254    -249.209
  C      286.557    -130.115    -247.640
  O      287.039    -131.320    -248.213
  O      288.336    -129.728    -249.678
  O      289.590    -131.694    -248.585
  H      289.238    -129.464    -249.946
  H      285.721    -130.330    -247.008
  H      286.253    -129.447    -248.418
  H      287.334    -129.659    -247.062

 6  7  8  9  10  11  12  13  14  15  16  26  30  31  32  33  35 0
 6-311+G(2d,p)
 ****
 37  38 0
 6-311+G(2d,p)
 ****
 1  2  3  4  5  17  18  19  20  21  22  23  24  25 0
 3-21G
 ****
 27  28  29  34  36  39  40  41  42  43  44  45  46 0
 3-21G
 ****


