%nproc=1
%NoSave
%Mem=1900MB
#P OB98/GEN NMR

erre ene a

0 1
  C      200.795     146.527    -175.166
  O      200.778     147.880    -175.587
  P      199.395     148.454    -176.165
  C      197.893     147.834    -174.131
  O      198.218     147.597    -175.494
  C      196.520     148.495    -174.025
  O      196.566     149.828    -174.572
  C      195.413     147.781    -174.788
  O      194.988     146.614    -174.106
  C      194.370     148.888    -174.868
  O      193.665     148.994    -173.620
  C      195.245     150.136    -175.086
  N      193.885     153.573    -178.629
  C      193.579     153.462    -177.317
  N      193.962     152.507    -176.445
  C      194.748     151.601    -177.048
  C      195.127     151.572    -178.380
  C      194.664     152.621    -179.188
  N      194.976     152.727    -180.528
  N      195.920     150.473    -178.639
  C      196.028     149.857    -177.481
  N      195.350     150.506    -176.486
  O      199.398     147.952    -177.683
  O      199.239     149.939    -176.066
  H      192.935     149.631    -173.752
  H      198.965     148.603    -178.268
  H      192.944     154.245    -176.913
  H      196.586     148.946    -177.314
  H      194.873     151.013    -174.540
  H      193.625     148.724    -175.653
  H      195.755     147.516    -175.796
  H      196.262     148.568    -172.960
  H      198.640     148.500    -173.686
  H      194.483     153.425    -181.066
  H      195.435     151.944    -180.973
  H      197.913     146.883    -173.590
  P      194.286     145.465    -174.977
  C      196.545     144.941    -176.082
  O      195.208     145.362    -176.289
  O      192.987     146.219    -175.522
  O      194.041     144.187    -174.251
  H      193.202     147.090    -175.898
  H      197.041     144.864    -177.053
  H      196.563     143.963    -175.594
  H      197.077     145.674    -175.470
  H      201.771     146.278    -174.806
  H      200.547     145.893    -175.992
  H      200.080     146.388    -174.382

 3  4  5  6  7  8  9  10  11  12  22  25  29  30  31  32 0
 6-311+G(2d,p)
 ****
 33  36  37 0
 6-311+G(2d,p)
 ****
 1  2  13  14  15  16  17  18  19  20  21  23  24  26 0
 3-21G
 ****
 27  28  34  35  38  39  40  41  42  43  44  45  46  47  48 0
 3-21G
 ****


