%nproc=1
%NoSave
%Mem=1900MB
#P OB98/GEN NMR

erre ene a

0 1
  C     -166.784     266.048     374.968
  O     -166.591     265.718     376.322
  P     -167.110     264.362     376.989
  C     -165.209     264.391     378.785
  O     -166.603     264.314     378.507
  C     -164.901     263.899     380.206
  O     -165.644     264.714     381.146
  C     -165.359     262.444     380.414
  O     -164.442     261.645     381.151
  C     -166.758     262.609     380.989
  O     -167.229     261.461     381.679
  C     -166.605     263.875     381.825
  N     -171.146     264.043     384.099
  C     -170.085     263.194     384.341
  N     -170.333     262.151     385.161
  N     -168.904     263.340     383.799
  C     -168.838     264.361     382.908
  C     -169.823     265.270     382.593
  C     -171.113     265.122     383.229
  O     -172.112     265.778     382.959
  N     -169.422     266.129     381.603
  C     -168.207     265.722     381.297
  N     -167.824     264.630     382.046
  O     -166.981     263.123     376.165
  O     -168.684     264.670     377.170
  H     -168.044     261.712     382.151
  H     -169.158     263.825     377.043
  H     -172.059     263.831     384.490
  H     -167.575     266.152     380.529
  H     -166.209     263.649     382.819
  H     -167.444     262.779     380.151
  H     -171.267     261.932     385.477
  H     -165.430     261.927     379.449
  H     -169.664     261.387     385.159
  H     -163.835     264.040     380.413
  H     -164.938     265.446     378.684
  H     -164.634     263.824     378.048
  P     -163.320     260.649     380.603
  C     -161.310     261.997     381.445
  O     -162.023     260.780     381.533
  O     -162.833     261.284     379.220
  O     -163.791     259.244     380.394
  H     -162.682     260.571     378.568
  H     -160.323     261.858     381.897
  H     -161.844     262.779     381.986
  H     -161.174     262.299     380.397
  H     -166.346     267.003     374.768
  H     -167.832     266.085     374.756
  H     -166.321     265.307     374.351

 3  4  5  6  7  8  9  10  11  12  23  26  30  31 0
 6-311+G(2d,p)
 ****
 33  35  36  37  38 0
 6-311+G(2d,p)
 ****
 1  2  13  14  15  16  17  18  19  20  21  22  24  25 0
 3-21G
 ****
 27  28  29  32  34  39  40  41  42  43  44  45  46  47  48  49 0
 3-21G
 ****


