%nproc=1
%NoSave
%Mem=1900MB
#P OB98/GEN NMR

erre ene a

0 1
  C      -45.178    -207.409    -528.921
  O      -44.043    -207.116    -529.730
  P      -44.276    -206.377    -531.134
  C      -42.760    -207.867    -532.602
  O      -42.963    -206.574    -532.041
  C      -41.292    -208.299    -532.442
  O      -41.196    -209.202    -531.305
  C      -40.713    -209.073    -533.635
  O      -40.096    -208.328    -534.685
  C      -39.605    -209.874    -532.958
  O      -38.424    -209.058    -532.823
  C      -40.170    -210.181    -531.577
  N      -39.044    -215.145    -531.008
  C      -38.268    -214.042    -531.062
  N      -38.645    -212.757    -531.217
  C      -39.982    -212.658    -531.306
  C      -40.902    -213.694    -531.261
  C      -40.388    -214.993    -531.108
  N      -41.178    -216.117    -531.060
  N      -42.189    -213.207    -531.388
  C      -42.040    -211.905    -531.530
  N      -40.727    -211.523    -531.471
  O      -44.801    -204.984    -531.061
  O      -45.332    -207.345    -531.860
  H      -38.643    -208.358    -532.180
  H      -45.965    -206.799    -532.368
  H      -37.198    -214.216    -530.979
  H      -42.851    -211.204    -531.677
  H      -39.417    -210.090    -530.784
  H      -39.310    -210.757    -533.540
  H      -41.459    -209.754    -534.059
  H      -40.675    -207.419    -532.229
  H      -43.022    -207.847    -533.666
  H      -40.729    -217.012    -530.995
  H      -42.181    -216.025    -531.191
  H      -43.457    -208.552    -532.119
  P      -39.934    -208.939    -536.157
  C      -37.834    -207.509    -536.780
  O      -39.191    -207.802    -537.013
  O      -41.188    -209.459    -536.766
  O      -38.785    -210.041    -535.951
  H      -37.911    -209.674    -535.753
  H      -37.467    -206.874    -537.597
  H      -37.234    -208.425    -536.751
  H      -37.729    -206.962    -535.837
  H      -44.860    -207.899    -528.024
  H      -45.844    -208.049    -529.460
  H      -45.682    -206.499    -528.671

 3  4  5  6  7  8  9  10  11  12  22  25  29  30  31  32 0
 6-311+G(2d,p)
 ****
 33  36  37 0
 6-311+G(2d,p)
 ****
 1  2  13  14  15  16  17  18  19  20  21  23  24  26 0
 3-21G
 ****
 27  28  34  35  38  39  40  41  42  43  44  45  46  47  48 0
 3-21G
 ****


