%nproc=1
%NoSave
%Mem=1900MB
#P OB98/GEN NMR

erre ene a

0 1
  C      121.225    -870.528     166.570
  O      121.138    -870.947     167.918
  H      120.547    -871.139     165.969
  H      122.244    -870.668     166.204
  H      120.933    -869.478     166.471
  P      121.866    -870.037     169.018
  C      123.591    -871.923     169.500
  O      123.378    -870.573     169.123
  C      125.073    -872.279     169.367
  O      125.817    -871.533     170.373
  C      125.379    -873.768     169.579
  O      126.445    -874.138     168.697
  C      125.879    -873.820     171.009
  O      126.699    -874.941     171.297
  C      126.624    -872.480     171.104
  N      126.836    -872.048     172.483
  C      127.917    -872.591     173.166
  O      128.758    -873.345     172.672
  N      128.019    -872.234     174.489
  C      127.156    -871.430     175.176
  O      127.292    -871.168     176.364
  C      126.029    -870.894     174.398
  C      125.925    -871.226     173.109
  O      121.206    -870.532     170.388
  O      121.741    -868.564     168.821
  H      120.406    -870.005     170.590
  H      126.127    -875.738     171.270
  H      128.796    -872.616     175.000
  H      125.316    -870.263     174.915
  H      125.088    -870.861     172.513
  H      127.591    -872.554     170.585
  H      125.028    -873.831     171.704
  H      124.521    -874.431     169.420
  H      125.431    -871.940     168.389
  H      123.007    -872.576     168.845
  H      123.256    -872.068     170.533
  P      126.106    -875.184     167.523
  C      127.623    -876.976     168.702
  O      126.351    -876.638     168.163
  O      127.344    -874.963     166.544
  O      124.763    -874.956     166.915
  H      128.175    -874.771     167.017
  H      127.596    -877.977     169.080
  H      127.864    -876.301     169.497
  H      128.366    -876.904     167.935

 6  7  8  9  10  11  12  13  14  15  16  27  31  32  33  34  35 0
 6-311+G(2d,p)
 ****
 36  37 0
 6-311+G(2d,p)
 ****
 1  2  3  4  5  17  18  19  20  21  22  23  24  25 0
 3-21G
 ****
 26  28  29  30  38  39  40  41  42  43  44  45 0
 3-21G
 ****


