%nproc=1
%NoSave
%Mem=1900MB
#P OB98/GEN NMR

erre ene a

0 1
  C      166.347      98.635     408.066
  O      165.507      98.757     409.199
  H      166.606      97.583     407.934
  H      167.268      99.211     408.217
  H      165.827      98.990     407.173
  P      164.991     100.236     409.554
  C      166.089     102.167     410.890
  O      166.291     100.978     410.134
  C      167.387     102.963     410.994
  O      167.811     103.410     409.690
  C      167.283     104.222     411.850
  O      167.393     103.906     413.225
  C      168.499     105.001     411.355
  O      169.691     104.490     411.979
  C      168.515     104.674     409.850
  N      169.346     108.406     406.422
  C      170.192     107.719     407.218
  N      169.895     106.767     408.135
  C      168.570     106.554     408.192
  C      167.585     107.182     407.441
  C      168.021     108.146     406.511
  N      167.156     108.841     405.691
  N      166.335     106.707     407.770
  C      166.564     105.766     408.668
  N      167.896     105.664     408.983
  O      163.759     100.310     410.385
  O      164.864     100.874     408.087
  H      169.786     103.554     411.710
  H      165.594     100.575     407.517
  H      171.247     107.954     407.103
  H      165.807     105.129     409.109
  H      169.536     104.528     409.478
  H      168.439     106.063     411.600
  H      166.377     104.792     411.622
  H      168.167     102.291     411.375
  H      165.723     101.923     411.894
  H      167.530     109.629     405.181
  H      166.163     108.734     405.846
  H      165.323     102.756     410.377
  P      166.315     104.456     414.281
  C      165.865     106.689     415.481
  O      166.622     106.021     414.476
  O      166.216     103.681     415.550
  O      164.931     104.458     413.475
  H      164.195     104.190     414.061
  H      166.154     107.719     415.519
  H      166.050     106.231     416.430
  H      164.823     106.619     415.248

 6  7  8  9  10  11  12  13  14  15  25  28  32  33  34  35 0
 6-311+G(2d,p)
 ****
 36  39  40 0
 6-311+G(2d,p)
 ****
 1  2  3  4  5  16  17  18  19  20  21  22  23  24 0
 3-21G
 ****
 26  27  29  30  31  37  38  41  42  43  44  45  46  47 0
 3-21G
 ****
 48 0
 3-21G
 ****


