%nproc=1
%NoSave
%Mem=1900MB
#P OB98/GEN NMR

erre ene a

0 1
  C       62.438     -85.202      63.163
  O       61.208     -84.577      63.464
  H       62.556     -85.242      62.078
  H       62.435     -86.223      63.553
  H       63.275     -84.641      63.589
  P       60.966     -84.134      64.985
  C       60.296     -85.324      67.187
  O       60.472     -85.439      65.784
  C       59.280     -86.355      67.681
  O       57.944     -85.866      67.394
  C       59.424     -87.733      67.021
  O       59.175     -88.744      68.000
  C       58.317     -87.743      65.981
  O       57.889     -89.062      65.649
  C       57.250     -86.898      66.668
  N       53.255     -87.885      63.759
  C       53.893     -88.673      64.698
  N       53.397     -89.915      64.885
  N       54.928     -88.277      65.392
  C       55.293     -87.000      65.126
  C       54.747     -86.122      64.218
  C       53.621     -86.582      63.435
  O       53.029     -85.940      62.574
  N       55.422     -84.927      64.218
  C       56.371     -85.084      65.122
  N       56.330     -86.321      65.704
  O       59.649     -83.228      64.895
  O       62.094     -83.394      65.624
  H       57.137     -88.979      65.023
  H       59.863     -82.310      65.147
  H       52.471     -88.243      63.243
  H       57.114     -84.343      65.385
  H       56.652     -87.478      67.381
  H       58.670     -87.258      65.062
  H       52.575     -90.267      64.420
  H       60.407     -87.893      66.574
  H       53.825     -90.498      65.594
  H       59.363     -86.432      68.771
  H       59.934     -84.318      67.419
  H       61.257     -85.482      67.687
  P       60.448     -89.540      68.565
  C       61.307     -91.984      68.513
  O       60.441     -91.018      67.936
  O       60.074     -89.783      70.103
  O       61.735     -88.795      68.428
  H       60.619     -89.209      70.672
  H       61.197     -92.915      67.997
  H       61.057     -92.116      69.545
  H       62.320     -91.649      68.432

 6  7  8  9  10  11  12  13  14  15  26  29  33  34 0
 6-311+G(2d,p)
 ****
 36  38  39  40  41 0
 6-311+G(2d,p)
 ****
 1  2  3  4  5  16  17  18  19  20  21  22  23  24  25 0
 3-21G
 ****
 27  28  30  31  32  35  37  42  43  44  45  46  47 0
 3-21G
 ****
 48  49 0
 3-21G
 ****


