%nproc=1
%NoSave
%Mem=1900MB
#P OB98/GEN NMR

erre ene a

0 1
  C      441.721     209.043     252.965
  O      440.382     209.512     252.995
  P      440.016     211.029     252.611
  C      438.672     210.631     250.435
  O      439.900     211.044     251.010
  C      438.481     211.285     249.064
  O      438.421     212.726     249.241
  C      439.605     210.988     248.060
  O      439.004     210.908     246.763
  C      440.486     212.216     248.165
  O      441.297     212.411     247.016
  C      439.433     213.307     248.396
  N      439.995     214.510     249.004
  C      439.755     215.729     248.367
  O      439.115     215.782     247.320
  N      440.255     216.875     248.937
  C      440.997     216.798     249.999
  N      441.417     217.966     250.559
  C      441.363     215.522     250.639
  C      440.814     214.434     250.106
  O      440.929     212.058     253.179
  O      438.489     211.189     253.056
  H      440.769     212.187     246.225
  H      438.390     211.431     254.009
  H      442.009     215.509     251.504
  H      441.007     213.455     250.523
  H      438.942     213.568     247.451
  H      441.147     212.121     249.032
  H      440.128     210.052     248.277
  H      437.514     210.964     248.660
  H      441.004     218.818     250.196
  H      437.860     210.949     251.093
  H      441.704     218.005     251.531
  H      438.649     209.539     250.357
  P      439.703     209.976     245.656
  C      438.046     208.036     245.202
  O      439.202     208.474     245.882
  O      441.214     209.907     246.202
  O      439.696     210.491     244.254
  H      441.814     209.733     245.455
  H      437.857     206.990     245.467
  H      438.192     208.096     244.120
  H      437.180     208.632     245.494
  H      441.745     208.013     253.253
  H      442.315     209.617     253.645
  H      442.113     209.145     251.975

 3  4  5  6  7  8  9  10  11  12  13  23  27  28  29  30  32 0
 6-311+G(2d,p)
 ****
 34  35 0
 6-311+G(2d,p)
 ****
 1  2  14  15  16  17  18  19  20  21  22  24  25  26 0
 3-21G
 ****
 31  33  36  37  38  39  40  41  42  43  44  45  46 0
 3-21G
 ****


