%nproc=1
%NoSave
%Mem=1900MB
#P OB98/GEN NMR

erre ene a

0 1
  C      130.211      27.504    -121.210
  O      130.461      27.840    -122.578
  P      129.780      29.180    -123.146
  C      128.618      28.030    -125.185
  O      129.596      28.945    -124.723
  C      128.672      27.898    -126.711
  O      128.668      29.225    -127.319
  C      129.898      27.146    -127.239
  O      129.460      26.377    -128.369
  C      130.819      28.265    -127.690
  O      131.772      27.821    -128.644
  C      129.796      29.276    -128.218
  N      130.338      30.628    -128.323
  C      130.839      31.012    -129.560
  O      130.911      30.245    -130.519
  N      131.300      32.297    -129.647
  C      131.379      33.190    -128.617
  O      131.802      34.331    -128.751
  C      130.940      32.690    -127.306
  C      130.450      31.451    -127.222
  O      130.988      30.219    -123.035
  O      128.542      29.562    -122.405
  H      131.856      29.827    -123.233
  H      131.307      27.583    -129.472
  H      131.639      32.605    -130.546
  H      131.042      33.349    -126.454
  H      130.138      31.046    -126.269
  H      129.435      28.972    -129.209
  H      131.356      28.676    -126.828
  H      130.347      26.485    -126.493
  H      127.756      27.391    -127.039
  H      127.621      28.375    -124.896
  H      128.773      27.061    -124.698
  P      129.017      24.849    -128.123
  C      130.897      23.772    -129.591
  O      129.522      24.004    -129.386
  O      127.439      24.972    -128.382
  O      129.340      24.306    -126.772
  H      127.222      25.467    -129.190
  H      131.013      22.993    -130.350
  H      131.383      23.434    -128.672
  H      131.379      24.686    -129.949
  H      130.721      26.596    -120.967
  H      129.159      27.373    -121.061
  H      130.565      28.292    -120.579

 3  4  5  6  7  8  9  10  11  12  13  24  28  29  30  31  32 0
 6-311+G(2d,p)
 ****
 33  34 0
 6-311+G(2d,p)
 ****
 1  2  14  15  16  17  18  19  20  21  22  23  25  26  27 0
 3-21G
 ****
 35  36  37  38  39  40  41  42  43  44  45 0
 3-21G
 ****


