%nproc=1
%NoSave
%Mem=1900MB
#P OB98/GEN NMR

erre ene a

0 1
  C      189.517      43.740     -42.669
  O      190.430      43.239     -41.709
  P      190.758      41.673     -41.643
  C      189.571      39.505     -40.930
  O      189.525      40.928     -40.937
  C      188.447      38.938     -40.065
  O      188.674      39.242     -38.665
  C      187.075      39.509     -40.374
  O      186.552      39.014     -41.595
  C      186.296      39.102     -39.126
  O      185.874      37.731     -39.215
  C      187.369      39.262     -38.029
  N      187.184      40.473     -37.240
  C      187.137      40.302     -35.852
  O      187.173      39.170     -35.360
  N      187.045      41.419     -35.055
  C      186.888      42.586     -35.600
  N      186.863      43.663     -34.764
  C      186.767      42.786     -37.058
  C      186.948      41.702     -37.812
  O      192.100      41.326     -41.087
  O      190.634      41.188     -43.167
  H      191.433      40.675     -43.401
  H      185.681      37.443     -38.299
  H      186.565      43.773     -37.456
  H      186.899      41.760     -38.895
  H      187.356      38.395     -37.354
  H      185.399      39.711     -38.975
  H      187.133      40.605     -40.421
  H      188.446      37.846     -40.182
  H      186.965      43.486     -33.769
  H      190.540      39.188     -40.530
  H      187.069      44.606     -35.084
  H      189.486      39.137     -41.959
  P      185.937      40.091     -42.610
  C      183.946      41.743     -42.533
  O      184.531      40.567     -42.011
  O      185.526      39.199     -43.883
  O      186.873      41.190     -42.997
  H      185.684      39.705     -44.700
  H      182.879      41.743     -42.291
  H      184.062      41.801     -43.621
  H      184.410      42.620     -42.068
  H      189.429      44.801     -42.558
  H      188.560      43.285     -42.522
  H      189.873      43.513     -43.652

 3  4  5  6  7  8  9  10  11  12  13  24  27  28  29  30  32 0
 6-311+G(2d,p)
 ****
 34  35 0
 6-311+G(2d,p)
 ****
 1  2  14  15  16  17  18  19  20  21  22  23  25  26 0
 3-21G
 ****
 31  33  36  37  38  39  40  41  42  43  44  45  46 0
 3-21G
 ****


