%nproc=1
%NoSave
%Mem=1900MB
#P OB98/GEN NMR

erre ene a

0 1
  C      300.877    -401.492     307.136
  O      300.523    -401.580     308.502
  H      300.570    -400.513     306.755
  H      300.351    -402.267     306.570
  H      301.955    -401.600     307.009
  P      301.018    -402.870     309.318
  C      302.716    -403.186     311.261
  O      301.775    -402.330     310.629
  C      303.761    -402.358     312.016
  O      304.743    -401.862     311.062
  C      303.172    -401.159     312.759
  O      303.862    -401.013     314.005
  C      303.502    -399.980     311.853
  O      303.572    -398.741     312.565
  C      304.825    -400.438     311.224
  N      305.067    -399.766     309.947
  C      305.281    -398.376     310.000
  O      305.256    -397.785     311.085
  N      305.469    -397.694     308.828
  C      305.357    -398.310     307.695
  N      305.524    -397.576     306.566
  C      305.062    -399.762     307.588
  C      304.939    -400.419     308.744
  O      302.212    -403.442     308.421
  O      299.968    -403.898     309.589
  H      303.723    -398.024     311.919
  H      302.275    -404.413     308.482
  H      304.952    -400.230     306.620
  H      304.717    -401.477     308.762
  H      305.666    -400.226     311.906
  H      302.727    -399.885     311.083
  H      302.100    -401.246     312.944
  H      304.297    -403.031     312.707
  H      305.707    -396.580     306.673
  H      303.222    -403.783     310.489
  H      305.413    -397.942     305.623
  H      302.189    -403.859     311.948
  P      303.366    -401.930     315.212
  C      304.434    -403.605     316.898
  O      304.645    -402.608     315.910
  O      302.646    -403.158     314.479
  O      302.435    -401.225     316.168
  H      301.673    -403.091     314.592
  H      305.378    -403.953     317.261
  H      303.894    -404.423     316.469
  H      303.871    -403.191     317.708

 6  7  8  9  10  11  12  13  14  15  16  26  30  31  32  33  35 0
 6-311+G(2d,p)
 ****
 37  38 0
 6-311+G(2d,p)
 ****
 1  2  3  4  5  17  18  19  20  21  22  23  24  25 0
 3-21G
 ****
 27  28  29  34  36  39  40  41  42  43  44  45  46 0
 3-21G
 ****


