%nproc=1
%NoSave
%Mem=1900MB
#P OB98/GEN NMR

erre ene a

0 1
  C     -131.136     -70.884    -153.114
  O     -130.755     -71.622    -154.268
  P     -130.448     -73.190    -154.081
  C     -128.477     -74.498    -153.000
  O     -128.928     -73.273    -153.572
  C     -126.968     -74.645    -153.168
  O     -126.634     -74.782    -154.564
  C     -126.158     -73.461    -152.665
  O     -125.952     -73.508    -151.262
  C     -124.845     -73.678    -153.401
  O     -124.070     -74.693    -152.730
  C     -125.323     -74.191    -154.764
  N     -123.081     -72.150    -158.885
  C     -122.703     -73.151    -158.058
  N     -123.351     -73.629    -156.975
  C     -124.483     -72.937    -156.754
  C     -124.974     -71.870    -157.490
  C     -124.227     -71.482    -158.610
  N     -124.626     -70.481    -159.472
  N     -126.161     -71.419    -156.955
  C     -126.390     -72.203    -155.923
  N     -125.409     -73.143    -155.763
  O     -130.362     -73.721    -155.588
  O     -131.453     -73.939    -153.274
  H     -123.212     -74.745    -153.194
  H     -130.542     -74.681    -155.615
  H     -121.762     -73.635    -158.303
  H     -127.250     -72.135    -155.271
  H     -124.672     -74.976    -155.165
  H     -124.225     -72.777    -153.440
  H     -126.604     -72.510    -152.983
  H     -126.661     -75.568    -152.657
  H     -128.978     -75.331    -153.503
  H     -124.136     -70.387    -160.349
  H     -125.570     -70.125    -159.383
  H     -128.748     -74.517    -151.937
  P     -126.406     -72.216    -150.421
  C     -125.488     -69.791    -150.215
  O     -125.331     -71.082    -150.775
  O     -126.056     -72.623    -148.913
  O     -127.841     -71.847    -150.593
  H     -126.624     -72.133    -148.288
  H     -124.539     -69.256    -150.296
  H     -125.765     -69.852    -149.156
  H     -126.256     -69.239    -150.765
  H     -131.308     -69.863    -153.384
  H     -130.354     -70.933    -152.385
  H     -132.033     -71.300    -152.704

 3  4  5  6  7  8  9  10  11  12  22  25  29  30  31  32 0
 6-311+G(2d,p)
 ****
 33  36  37 0
 6-311+G(2d,p)
 ****
 1  2  13  14  15  16  17  18  19  20  21  23  24  26 0
 3-21G
 ****
 27  28  34  35  38  39  40  41  42  43  44  45  46  47  48 0
 3-21G
 ****


