%nproc=1
%NoSave
%Mem=1900MB
#P OB98/GEN NMR

erre ene a

0 1
  C      123.722    -120.277     668.682
  O      123.485    -121.620     669.083
  P      124.565    -122.291     670.068
  C      123.067    -124.409     670.109
  O      124.377    -123.879     669.961
  C      122.996    -125.814     669.495
  O      124.142    -126.594     669.916
  C      121.772    -126.632     669.913
  O      120.617    -126.218     669.229
  C      122.248    -128.037     669.552
  O      122.121    -128.250     668.137
  C      123.742    -127.989     669.931
  N      124.518    -132.290     672.610
  C      124.258    -132.082     671.292
  N      124.044    -130.906     670.658
  C      124.123    -129.883     671.529
  C      124.358    -129.945     672.892
  C      124.566    -131.212     673.428
  N      124.825    -131.433     674.772
  N      124.350    -128.690     673.454
  C      124.120    -127.877     672.441
  N      123.994    -128.543     671.252
  O      123.994    -121.944     671.520
  O      125.967    -121.803     669.892
  H      122.649    -127.554     667.685
  H      124.724    -121.795     672.163
  H      124.220    -132.962     670.680
  H      124.055    -126.795     672.512
  H      124.382    -128.530     669.228
  H      121.689    -128.822     670.063
  H      121.626    -126.571     670.996
  H      123.039    -125.716     668.408
  H      122.346    -123.775     669.586
  H      124.828    -132.385     675.101
  H      124.734    -130.658     675.414
  H      122.807    -124.438     671.174
  P      119.252    -126.111     670.079
  C      118.427    -124.319     668.418
  O      118.184    -125.584     669.014
  O      119.533    -124.799     670.974
  O      118.892    -127.346     670.822
  H      119.857    -124.061     670.443
  H      117.667    -124.112     667.693
  H      119.410    -124.322     667.929
  H      118.414    -123.536     669.197
  H      122.935    -119.954     668.033
  H      124.657    -120.219     668.165
  H      123.753    -119.647     669.546

 3  4  5  6  7  8  9  10  11  12  22  25  29  30  31  32 0
 6-311+G(2d,p)
 ****
 33  36  37 0
 6-311+G(2d,p)
 ****
 1  2  13  14  15  16  17  18  19  20  21  23  24  26 0
 3-21G
 ****
 27  28  34  35  38  39  40  41  42  43  44  45  46  47  48 0
 3-21G
 ****


