%nproc=1
%NoSave
%Mem=1900MB
#P OB98/GEN NMR

erre ene a

0 1
  C       19.008     -34.084    -648.086
  O       17.870     -33.445    -647.494
  P       17.838     -33.412    -645.884
  C       15.932     -35.163    -645.583
  O       17.307     -34.840    -645.370
  C       15.619     -36.604    -645.178
  O       14.213     -36.878    -645.438
  C       16.426     -37.674    -645.915
  O       16.724     -38.742    -645.005
  C       15.449     -38.214    -646.944
  O       15.791     -39.526    -647.378
  C       14.141     -38.122    -646.149
  N       10.411     -41.047    -647.922
  C       11.380     -41.325    -646.975
  N       11.366     -42.567    -646.438
  N       12.283     -40.465    -646.582
  C       12.161     -39.252    -647.179
  C       11.239     -38.853    -648.124
  C       10.276     -39.828    -648.578
  O        9.429     -39.655    -649.451
  N       11.436     -37.546    -648.493
  C       12.480     -37.152    -647.777
  N       12.956     -38.160    -646.968
  O       16.623     -32.410    -645.566
  O       19.106     -32.940    -645.264
  H       15.068     -39.835    -647.963
  H       16.939     -31.676    -645.001
  H        9.758     -41.750    -648.195
  H       12.939     -36.181    -647.819
  H       14.074     -38.934    -645.417
  H       15.439     -37.547    -647.817
  H       10.656     -43.262    -646.639
  H       17.351     -37.308    -646.371
  H       12.030     -42.775    -645.714
  H       15.765     -36.695    -644.090
  H       15.691     -35.023    -646.640
  H       15.318     -34.462    -645.007
  P       18.272     -38.972    -644.650
  C       19.060     -39.811    -646.986
  O       19.072     -38.770    -646.032
  O       18.366     -40.550    -644.393
  O       18.771     -38.181    -643.490
  H       19.101     -40.751    -643.788
  H       18.326     -40.590    -646.754
  H       20.056     -40.265    -647.035
  H       18.818     -39.386    -647.972
  H       18.923     -34.047    -649.152
  H       19.050     -35.104    -647.767
  H       19.900     -33.578    -647.781

 3  4  5  6  7  8  9  10  11  12  23  26  30  31  33  0
 6-311+G(2d,p)
 ****
 35  36  37  38 0
 6-311+G(2d,p)
 ****
 1  2  13  14  15  16  17  18  19  20  21  22  24  25  27  28  29 0
 3-21G
 ****
 32  34  39  40  41  42  43  44  45  46  47  48  49 0
 3-21G
 ****


