%nproc=1
%NoSave
%Mem=1900MB
#P OB98/GEN NMR

erre ene a

0 1
  C      -28.118      87.528      41.352
  O      -28.738      86.371      40.825
  H      -28.881      88.149      41.827
  H      -27.644      88.102      40.551
  H      -27.376      87.246      42.103
  P      -27.789      85.337      40.049
  C      -26.462      85.520      37.834
  O      -27.530      86.026      38.624
  C      -26.016      86.560      36.811
  O      -25.669      87.791      37.469
  C      -24.796      86.154      35.994
  O      -25.179      85.332      34.904
  C      -24.300      87.511      35.519
  O      -25.072      87.935      34.378
  C      -24.600      88.423      36.721
  N      -20.947      91.744      38.128
  C      -21.797      91.738      37.079
  N      -22.703      90.797      36.735
  C      -22.692      89.782      37.614
  C      -21.880      89.650      38.730
  C      -20.977      90.695      38.982
  N      -20.110      90.697      40.054
  N      -22.146      88.471      39.395
  C      -23.143      87.931      38.725
  N      -23.485      88.667      37.618
  O      -28.259      83.923      40.022
  O      -26.397      85.576      40.805
  H      -25.155      87.161      33.790
  H      -26.261      86.523      40.980
  H      -21.739      92.603      36.425
  H      -23.664      87.024      39.007
  H      -24.962      89.408      36.402
  H      -23.255      87.491      35.206
  H      -24.025      85.688      36.618
  H      -26.870      86.774      36.153
  H      -26.774      84.604      37.319
  H      -19.373      91.383      40.049
  H      -20.046      89.857      40.610
  H      -25.638      85.273      38.510
  P      -24.134      84.947      33.749
  C      -22.865      86.343      32.002
  O      -24.003      86.271      32.853
  O      -24.459      83.695      33.013
  O      -22.724      84.880      34.499
  H      -22.076      84.402      33.947
  H      -22.885      87.264      31.457
  H      -22.880      85.522      31.316
  H      -21.974      86.297      32.593

 6  7  8  9  10  11  12  13  14  15  25  28  32  33  34  35 0
 6-311+G(2d,p)
 ****
 36  39  40 0
 6-311+G(2d,p)
 ****
 1  2  3  4  5  16  17  18  19  20  21  22  23  24 0
 3-21G
 ****
 26  27  29  30  31  37  38  41  42  43  44  45  46  47 0
 3-21G
 ****
 48 0
 3-21G
 ****


