%nproc=1
%NoSave
%Mem=1900MB
#P OB98/GEN NMR

erre ene a

0 1
  C      903.036    -622.007    -557.664
  O      902.748    -620.659    -557.314
  P      902.712    -619.578    -558.506
  C      905.309    -619.737    -558.612
  O      904.171    -618.890    -558.503
  C      906.023    -619.534    -559.950
  O      905.199    -619.996    -561.028
  C      906.313    -618.062    -560.267
  O      907.507    -617.607    -559.628
  C      906.521    -618.144    -561.772
  O      907.848    -618.649    -562.056
  C      905.475    -619.173    -562.192
  N      903.149    -616.953    -566.164
  C      904.418    -617.385    -565.989
  N      904.957    -617.961    -564.908
  C      904.068    -618.036    -563.902
  C      902.746    -617.604    -563.925
  C      902.280    -617.056    -565.141
  N      900.984    -616.637    -565.318
  N      902.141    -617.854    -562.710
  C      903.051    -618.416    -561.981
  N      904.240    -618.569    -562.659
  O      901.767    -618.424    -557.930
  O      902.232    -620.093    -559.819
  H      908.479    -618.030    -561.644
  H      901.387    -617.906    -558.666
  H      905.080    -617.250    -566.840
  H      902.918    -618.774    -560.954
  H      905.828    -619.844    -562.977
  H      906.443    -617.173    -562.270
  H      905.452    -617.417    -560.053
  H      906.947    -620.129    -559.935
  H      904.991    -620.791    -558.540
  H      900.680    -616.428    -566.255
  H      900.293    -616.904    -564.618
  H      905.993    -619.539    -557.778
  P      907.297    -616.699    -558.308
  C      905.860    -614.975    -559.611
  O      907.033    -615.212    -558.874
  O      908.777    -616.619    -557.704
  O      906.307    -617.236    -557.340
  H      908.733    -616.454    -556.738
  H      905.668    -613.902    -559.635
  H      904.993    -615.467    -559.163
  H      905.984    -615.331    -560.639
  H      903.028    -622.614    -556.783
  H      904.001    -622.058    -558.123
  H      902.296    -622.364    -558.349

 3  4  5  6  7  8  9  10  11  12  22  25  29  30  31  32 0
 6-311+G(2d,p)
 ****
 33  36  37 0
 6-311+G(2d,p)
 ****
 1  2  13  14  15  16  17  18  19  20  21  23  24  26 0
 3-21G
 ****
 27  28  34  35  38  39  40  41  42  43  44  45  46  47  48 0
 3-21G
 ****


