%nproc=1
%NoSave
%Mem=1900MB
#P OB98/GEN NMR

erre ene a

0 1
  C      562.245    -525.134     295.659
  O      561.631    -523.856     295.673
  P      561.378    -523.023     294.328
  C      559.633    -521.773     295.747
  O      560.686    -521.648     294.798
  C      558.832    -520.470     295.869
  O      559.641    -519.470     296.558
  C      558.391    -519.865     294.518
  O      557.120    -519.237     294.754
  C      559.456    -518.814     294.257
  O      559.053    -517.832     293.315
  C      559.714    -518.308     295.693
  N      560.990    -517.616     295.805
  C      560.993    -516.241     295.511
  O      559.965    -515.688     295.108
  N      562.173    -515.535     295.639
  C      563.261    -516.175     295.929
  N      564.404    -515.429     296.036
  C      563.332    -517.633     296.112
  C      562.164    -518.286     296.047
  O      560.664    -523.757     293.247
  O      562.850    -522.530     293.912
  H      559.776    -517.172     293.232
  H      563.357    -523.284     293.492
  H      564.280    -518.128     296.296
  H      562.114    -519.356     296.180
  H      558.913    -517.616     296.003
  H      560.360    -519.307     293.867
  H      558.305    -520.604     293.713
  H      557.955    -520.668     296.494
  H      564.309    -514.418     295.920
  H      560.086    -521.997     296.723
  H      565.286    -515.802     296.335
  H      558.974    -522.605     295.479
  P      555.788    -519.727     294.004
  C      554.497    -517.820     295.133
  O      554.818    -518.457     293.905
  O      555.168    -520.961     294.566
  O      556.267    -519.947     292.483
  H      555.592    -520.490     292.013
  H      554.071    -516.838     294.918
  H      555.384    -517.700     295.755
  H      553.750    -518.423     295.664
  H      562.315    -525.507     296.659
  H      563.226    -525.054     295.239
  H      561.658    -525.805     295.068

 3  4  5  6  7  8  9  10  11  12  13  23  27  28  29  30  32 0
 6-311+G(2d,p)
 ****
 34  35 0
 6-311+G(2d,p)
 ****
 1  2  14  15  16  17  18  19  20  21  22  24  25  26 0
 3-21G
 ****
 31  33  36  37  38  39  40  41  42  43  44  45  46 0
 3-21G
 ****


