%nproc=1
%NoSave
%Mem=1900MB
#P OB98/GEN NMR

erre ene a

0 1
  C     -168.372    -152.008      21.677
  O     -168.007    -151.639      20.349
  P     -169.112    -150.981      19.388
  C     -169.323    -152.552      17.362
  O     -169.884    -152.156      18.609
  C     -170.392    -152.757      16.277
  O     -171.343    -153.781      16.674
  C     -171.195    -151.493      15.935
  O     -171.470    -151.541      14.530
  C     -172.463    -151.691      16.740
  O     -173.532    -150.875      16.278
  C     -172.661    -153.200      16.579
  N     -173.566    -153.757      17.572
  C     -174.922    -153.449      17.442
  O     -175.295    -152.653      16.577
  N     -175.814    -154.029      18.317
  C     -175.367    -154.727      19.316
  N     -176.285    -155.299      20.144
  C     -173.930    -154.921      19.585
  C     -173.100    -154.436      18.667
  O     -168.630    -149.864      18.525
  O     -170.223    -150.465      20.429
  H     -173.378    -149.953      16.578
  H     -170.619    -149.637      20.088
  H     -173.606    -155.441      20.475
  H     -172.025    -154.532      18.772
  H     -173.049    -153.439      15.579
  H     -172.278    -151.442      17.791
  H     -170.665    -150.563      16.166
  H     -169.882    -153.120      15.373
  H     -177.263    -155.137      19.960
  H     -168.770    -153.485      17.503
  H     -176.018    -155.898      20.914
  H     -168.581    -151.803      17.052
  P     -170.265    -151.294      13.494
  C     -170.168    -148.706      13.218
  O     -169.619    -149.864      13.819
  O     -171.068    -150.989      12.131
  O     -169.330    -152.440      13.290
  H     -170.494    -151.212      11.373
  H     -169.804    -147.827      13.759
  H     -171.260    -148.713      13.269
  H     -169.843    -148.644      12.177
  H     -167.524    -152.428      22.176
  H     -169.160    -152.731      21.642
  H     -168.706    -151.142      22.209

 3  4  5  6  7  8  9  10  11  12  13  23  27  28  29  30  32 0
 6-311+G(2d,p)
 ****
 34  35 0
 6-311+G(2d,p)
 ****
 1  2  14  15  16  17  18  19  20  21  22  24  25  26 0
 3-21G
 ****
 31  33  36  37  38  39  40  41  42  43  44  45  46 0
 3-21G
 ****


