%nproc=1
%NoSave
%Mem=1900MB
#P OB98/GEN NMR

erre ene a

0 1
  C      -35.664     -27.342      17.442
  O      -36.451     -26.525      18.283
  H      -35.229     -26.721      16.655
  H      -36.279     -28.118      16.979
  H      -34.855     -27.802      18.017
  P      -37.267     -27.260      19.451
  C      -37.756     -26.786      21.959
  O      -37.083     -26.376      20.775
  C      -36.889     -26.469      23.173
  O      -35.594     -27.100      23.030
  C      -36.597     -24.986      23.358
  O      -37.679     -24.283      23.946
  C      -35.382     -25.043      24.266
  O      -35.756     -25.173      25.645
  C      -34.647     -26.301      23.767
  N      -33.474     -25.961      22.967
  C      -32.354     -25.550      23.684
  O      -32.327     -25.474      24.910
  N      -31.267     -25.191      22.936
  C      -31.210     -25.152      21.574
  O      -30.220     -24.765      20.966
  C      -32.429     -25.579      20.870
  C      -33.492     -25.954      21.587
  O      -36.393     -28.568      19.740
  O      -38.683     -27.596      19.114
  H      -36.844     -29.353      19.379
  H      -36.411     -24.468      25.814
  H      -30.443     -24.893      23.436
  H      -32.420     -25.559      19.788
  H      -34.406     -26.263      21.091
  H      -34.315     -26.913      24.615
  H      -34.787     -24.138      24.178
  H      -36.306     -24.535      22.402
  H      -37.376     -26.880      24.067
  H      -37.938     -27.864      21.925
  H      -38.719     -26.269      22.018
  P      -37.794     -22.709      23.655
  C      -39.718     -20.948      24.000
  O      -39.286     -22.298      24.068
  O      -37.796     -22.706      22.056
  O      -36.703     -21.915      24.289
  H      -38.149     -23.537      21.693
  H      -40.738     -20.884      24.315
  H      -39.633     -20.597      22.993
  H      -39.108     -20.346      24.640

 6  7  8  9  10  11  12  13  14  15  16  27  31  32  33  34  35 0
 6-311+G(2d,p)
 ****
 36  37 0
 6-311+G(2d,p)
 ****
 1  2  3  4  5  17  18  19  20  21  22  23  24  25 0
 3-21G
 ****
 26  28  29  30  38  39  40  41  42  43  44  45 0
 3-21G
 ****


