%nproc=1
%NoSave
%Mem=1900MB
#P OB98/GEN NMR

erre ene a

0 1
  C     -112.327    -122.851    -476.789
  O     -110.940    -122.712    -477.004
  P     -110.238    -121.316    -477.333
  C     -108.654    -121.756    -479.346
  O     -108.777    -121.621    -477.937
  C     -107.293    -122.324    -479.780
  O     -106.234    -121.513    -479.231
  C     -107.101    -123.731    -479.197
  O     -107.656    -124.855    -479.853
  C     -105.609    -123.834    -478.891
  O     -104.888    -124.519    -479.915
  C     -105.167    -122.373    -478.805
  N     -102.461    -123.565    -474.686
  C     -102.404    -124.116    -475.952
  N     -101.669    -125.240    -476.076
  N     -103.028    -123.610    -476.988
  C     -103.798    -122.541    -476.686
  C     -103.922    -121.899    -475.474
  C     -103.193    -122.438    -474.348
  O     -103.283    -122.032    -473.193
  N     -104.850    -120.889    -475.522
  C     -105.316    -120.942    -476.752
  N     -104.740    -121.954    -477.484
  O     -110.383    -120.233    -476.313
  O     -111.054    -120.855    -478.645
  H     -105.406    -125.297    -480.177
  H     -111.123    -119.880    -478.618
  H     -102.018    -124.043    -473.907
  H     -106.094    -120.302    -477.152
  H     -104.327    -122.185    -479.485
  H     -105.443    -124.398    -477.963
  H     -101.297    -125.736    -475.278
  H     -107.589    -123.733    -478.213
  H     -101.742    -125.761    -476.945
  H     -107.174    -122.279    -480.866
  H     -108.815    -120.766    -479.789
  H     -109.447    -122.411    -479.722
  P     -108.365    -126.108    -479.154
  C     -107.259    -128.114    -480.302
  O     -108.424    -127.310    -480.212
  O     -109.900    -125.668    -479.031
  O     -107.820    -126.474    -477.811
  H     -110.339    -126.190    -478.330
  H     -107.288    -128.685    -481.228
  H     -107.235    -128.810    -479.456
  H     -106.355    -127.494    -480.284
  H     -112.556    -123.877    -476.587
  H     -112.857    -122.533    -477.662
  H     -112.621    -122.249    -475.955

 3  4  5  6  7  8  9  10  11  12  23  26  30  31 0
 6-311+G(2d,p)
 ****
 33  35  36  37  38 0
 6-311+G(2d,p)
 ****
 1  2  13  14  15  16  17  18  19  20  21  22  24  25 0
 3-21G
 ****
 27  28  29  32  34  39  40  41  42  43  44  45  46  47  48  49 0
 3-21G
 ****


