%nproc=1
%NoSave
%Mem=1900MB
#P OB98/GEN NMR

erre ene a

0 1
  C      -29.800     228.934     433.717
  O      -28.407     229.053     433.499
  H      -30.310     229.748     433.194
  H      -30.036     229.007     434.784
  H      -30.165     227.979     433.327
  P      -27.427     228.064     434.292
  C      -25.771     230.031     434.594
  O      -26.529     229.006     435.228
  C      -25.164     230.957     435.643
  O      -26.196     231.722     436.297
  C      -24.435     230.209     436.755
  O      -23.179     229.740     436.306
  C      -24.395     231.275     437.836
  O      -23.337     232.214     437.598
  C      -25.782     231.945     437.665
  N      -26.773     231.433     438.602
  C      -27.901     232.240     438.801
  O      -28.017     233.308     438.203
  N      -28.853     231.819     439.694
  C      -28.711     230.694     440.319
  N      -29.693     230.337     441.195
  C      -27.547     229.805     440.129
  C      -26.623     230.241     439.272
  O      -26.644     227.084     433.473
  O      -28.399     227.333     435.336
  H      -23.573     233.018     438.104
  H      -28.774     226.521     434.944
  H      -27.472     228.875     440.666
  H      -25.739     229.646     439.063
  H      -25.703     233.029     437.802
  H      -24.235     230.840     438.821
  H      -25.054     229.378     437.117
  H      -24.491     231.661     435.136
  H      -30.471     230.981     441.302
  H      -26.455     230.592     433.949
  H      -29.731     229.441     441.665
  H      -24.981     229.599     433.970
  P      -22.535     228.410     436.931
  C      -20.463     228.663     435.412
  O      -20.944     228.581     436.754
  O      -23.104     227.130     436.418
  O      -22.741     228.611     438.509
  H      -23.686     228.474     438.767
  H      -19.399     228.774     435.421
  H      -20.906     229.507     434.925
  H      -20.724     227.769     434.884

 6  7  8  9  10  11  12  13  14  15  16  26  30  31  32  33  35 0
 6-311+G(2d,p)
 ****
 37  38 0
 6-311+G(2d,p)
 ****
 1  2  3  4  5  17  18  19  20  21  22  23  24  25 0
 3-21G
 ****
 27  28  29  34  36  39  40  41  42  43  44  45  46 0
 3-21G
 ****


