%nproc=1
%NoSave
%Mem=1900MB
#P OB98/GEN NMR

erre ene a

0 1
  C     -889.540     593.869    -481.665
  O     -890.940     594.173    -481.544
  P     -891.540     595.183    -482.652
  C     -893.960     594.949    -481.693
  O     -892.870     595.792    -482.000
  C     -894.870     595.625    -480.644
  O     -894.140     595.882    -479.436
  C     -895.450     596.943    -481.097
  O     -896.590     596.731    -481.894
  C     -895.760     597.605    -479.743
  O     -897.020     597.102    -479.204
  C     -894.590     597.139    -478.881
  N     -892.460     600.899    -476.237
  C     -893.690     600.267    -476.053
  N     -894.410     600.652    -474.992
  N     -894.150     599.320    -476.857
  C     -893.290     599.050    -477.873
  C     -892.060     599.609    -478.155
  C     -891.560     600.606    -477.265
  O     -890.450     601.133    -477.307
  N     -891.540     599.092    -479.315
  C     -892.410     598.165    -479.695
  N     -893.480     598.091    -478.842
  O     -892.080     594.176    -483.769
  O     -890.560     596.200    -483.189
  H     -897.160     597.479    -478.320
  H     -891.430     594.118    -484.508
  H     -892.160     601.609    -475.578
  H     -892.280     597.536    -480.551
  H     -894.880     596.961    -477.840
  H     -895.890     598.669    -479.834
  H     -894.140     601.397    -474.347
  H     -894.690     597.548    -481.624
  H     -895.310     600.205    -474.859
  H     -895.680     594.897    -480.383
  H     -893.580     594.004    -481.280
  H     -894.530     594.726    -482.619
  P     -896.960     597.882    -482.988
  C     -899.330     598.256    -481.982
  O     -898.080     598.808    -482.304
  O     -897.750     597.065    -484.125
  O     -895.780     598.591    -483.553
  H     -897.530     597.443    -484.999
  H     -899.740     598.795    -481.129
  H     -899.240     597.198    -481.716
  H     -900.000     598.351    -482.842
  H     -889.252     593.196    -480.885
  H     -888.971     594.772    -481.585
  H     -889.355     593.413    -482.615

 3  4  5  6  7  8  9  10  11  12  23  26  30  31 0
 6-311+G(2d,p)
 ****
 33  35  36  37  38 0
 6-311+G(2d,p)
 ****
 1  2  13  14  15  16  17  18  19  20  21  22  24  25 0
 3-21G
 ****
 27  28  29  32  34  39  40  41  42  43  44  45  46  47  48  49 0
 3-21G
 ****


