%nproc=1
%NoSave
%Mem=1900MB
#P OB98/GEN NMR

erre ene a

0 1
  C      181.455       4.794      99.055
  O      181.556       6.206      99.034
  P      180.195       7.049      98.948
  C      180.431       9.107     100.533
  O      179.989       7.765     100.366
  C      179.549       9.815     101.563
  O      179.691       9.195     102.859
  C      179.907      11.280     101.769
  O      179.388      12.092     100.728
  C      179.283      11.563     103.128
  O      177.885      11.866     102.999
  C      179.485      10.219     103.856
  N      180.578      10.264     104.822
  C      180.288      10.871     106.043
  O      179.189      11.364     106.298
  N      181.316      10.927     106.943
  C      182.594      10.495     106.730
  O      183.489      10.625     107.557
  C      182.850       9.890     105.412
  C      181.849       9.811     104.532
  O      179.050       5.929      98.916
  O      180.108       7.965      97.774
  H      177.829      12.761     102.609
  H      178.318       6.222      98.342
  H      181.120      11.338     107.841
  H      183.853       9.538     105.209
  H      182.022       9.381     103.551
  H      178.568       9.939     104.390
  H      179.751      12.418     103.627
  H      180.997      11.391     101.846
  H      178.501       9.715     101.250
  H      180.372       9.629      99.576
  H      181.474       9.101     100.860
  P      180.453      12.748      99.718
  C      179.935      11.142      97.724
  O      180.850      11.570      98.708
  O      181.719      12.917     100.685
  O      179.965      14.016      99.102
  H      181.763      12.213     101.356
  H      179.343      11.977      97.337
  H      179.266      10.391      98.153
  H      180.490      10.691      96.898
  H      182.434       4.367      99.114
  H      180.972       4.458      98.161
  H      180.882       4.490      99.906

 3  4  5  6  7  8  9  10  11  12  13  23  28  29  30  31  32 0
 6-311+G(2d,p)
 ****
 33  34 0
 6-311+G(2d,p)
 ****
 1  2  14  15  16  17  18  19  20  21  22  24  25  26 0
 3-21G
 ****
 27  35  36  37  38  39  40  41  42  43  44  45 0
 3-21G
 ****


