%nproc=1
%NoSave
%Mem=1900MB
#P OB98/GEN NMR

erre ene a

0 1
  C      103.093     354.606     102.515
  O      102.597     353.441     103.151
  P      103.644     352.326     103.632
  C      102.865     350.527     101.881
  O      103.011     350.905     103.239
  C      101.580     349.714     101.692
  O      101.702     348.467     102.431
  C      100.307     350.415     102.177
  O       99.247     350.034     101.291
  C      100.092     349.809     103.554
  O       98.748     349.919     103.996
  C      100.562     348.372     103.308
  N      100.917     347.657     104.535
  C       99.914     347.431     105.471
  O       98.753     347.816     105.337
  N      100.298     346.762     106.604
  C      101.568     346.369     106.917
  O      101.858     345.789     107.956
  C      102.594     346.678     105.909
  C      102.226     347.287     104.785
  O      103.472     352.403     105.220
  O      105.031     352.552     103.136
  H      102.555     352.584     105.495
  H       98.679     349.486     104.865
  H       99.579     346.555     107.280
  H      103.616     346.394     106.130
  H      102.965     347.528     104.030
  H       99.787     347.812     102.769
  H      100.732     350.322     104.278
  H      100.406     351.504     102.190
  H      101.495     349.454     100.630
  H      103.722     349.918     101.581
  H      102.855     351.426     101.256
  P       99.158     350.761      99.856
  C       97.058     352.310     100.073
  O       97.617     351.106      99.591
  O       99.414     349.509      98.886
  O      100.143     351.867      99.651
  H       98.871     348.739      99.113
  H       96.136     352.513      99.521
  H       97.739     353.151      99.936
  H       96.814     352.201     101.132
  H      102.276     355.247     102.257
  H      103.624     354.330     101.628
  H      103.754     355.121     103.180

 3  4  5  6  7  8  9  10  11  12  13  24  28  29  30  31  32 0
 6-311+G(2d,p)
 ****
 33  34 0
 6-311+G(2d,p)
 ****
 1  2  14  15  16  17  18  19  20  21  22  23  25  26  27 0
 3-21G
 ****
 35  36  37  38  39  40  41  42  43  44  45 0
 3-21G
 ****


