%nproc=1
%NoSave
%Mem=1900MB
#P OB98/GEN NMR

erre ene a

0 1
  C     -129.832     295.280     255.256
  O     -130.565     296.484     255.195
  H     -128.969     295.432     255.909
  H     -129.472     295.003     254.263
  H     -130.449     294.474     255.671
  P     -131.877     296.566     254.268
  C     -134.027     297.949     254.517
  O     -132.616     297.931     254.694
  C     -134.648     299.185     255.167
  O     -134.682     299.006     256.611
  C     -133.884     300.490     254.881
  O     -134.796     301.519     254.494
  C     -133.255     300.842     256.223
  O     -132.973     302.225     256.363
  C     -134.309     300.273     257.188
  N     -133.795     300.141     258.547
  C     -133.668     301.330     259.279
  O     -133.984     302.408     258.767
  N     -133.133     301.272     260.532
  C     -132.716     300.137     261.013
  N     -132.168     300.158     262.255
  C     -132.811     298.863     260.261
  C     -133.358     298.934     259.053
  O     -132.737     295.343     254.303
  O     -131.324     296.897     252.805
  H     -132.282     302.468     255.716
  H     -131.994     296.622     252.136
  H     -132.443     297.946     260.702
  H     -133.468     298.057     258.430
  H     -135.205     300.912     257.215
  H     -132.317     300.283     256.339
  H     -133.123     300.373     254.105
  H     -135.696     299.259     254.846
  H     -132.118     301.050     262.730
  H     -134.444     297.029     254.957
  H     -131.792     299.344     262.716
  H     -134.241     297.959     253.441
  P     -134.265     302.558     253.392
  C     -135.343     304.396     251.904
  O     -135.455     303.588     253.066
  O     -134.143     301.675     252.068
  O     -132.961     303.189     253.751
  H     -133.203     301.541     251.841
  H     -136.205     305.025     251.822
  H     -135.275     303.770     251.039
  H     -134.464     305.003     251.975

 6  7  8  9  10  11  12  13  14  15  16  26  30  31  32  33  35 0
 6-311+G(2d,p)
 ****
 37  38 0
 6-311+G(2d,p)
 ****
 1  2  3  4  5  17  18  19  20  21  22  23  24  25 0
 3-21G
 ****
 27  28  29  34  36  39  40  41  42  43  44  45  46 0
 3-21G
 ****


