%nproc=1
%NoSave
%Mem=1900MB
#P OB98/GEN NMR

erre ene a

0 1
  C      147.423     283.885     236.569
  O      148.703     284.452     236.779
  H      147.281     283.061     237.275
  H      147.333     283.487     235.554
  H      146.644     284.632     236.741
  P      149.207     285.580     235.760
  C      149.497     285.625     233.189
  O      149.448     284.827     234.368
  C      149.465     284.731     231.952
  O      148.288     283.897     231.968
  C      149.398     285.517     230.648
  O      150.660     286.069     230.330
  C      148.891     284.449     229.699
  O      149.948     283.582     229.275
  C      147.883     283.693     230.594
  N      146.503     284.130     230.387
  C      145.941     283.813     229.149
  O      146.592     283.196     228.304
  N      144.654     284.227     228.888
  C      143.992     284.880     229.789
  N      142.727     285.259     229.469
  C      144.543     285.222     231.112
  C      145.794     284.824     231.339
  O      150.356     286.431     236.208
  O      147.892     286.450     235.480
  H      150.315     283.187     230.090
  H      147.818     287.176     236.125
  H      143.951     285.763     231.837
  H      146.275     285.032     232.291
  H      147.930     282.615     230.405
  H      148.443     284.888     228.808
  H      148.637     286.302     230.720
  H      150.346     284.077     231.976
  H      142.391     285.011     228.543
  H      150.431     286.192     233.221
  H      142.086     285.693     230.118
  H      148.657     286.332     233.167
  P      150.778     287.279     229.278
  C      149.914     287.571     226.863
  O      150.346     286.650     227.860
  O      152.075     288.009     229.289
  O      149.524     288.204     229.650
  H      149.680     288.706     230.487
  H      149.656     287.037     225.972
  H      150.703     288.261     226.649
  H      149.059     288.106     227.219

 6  7  8  9  10  11  12  13  14  15  16  26  30  31  32  33  35 0
 6-311+G(2d,p)
 ****
 37  38 0
 6-311+G(2d,p)
 ****
 1  2  3  4  5  17  18  19  20  21  22  23  24  25 0
 3-21G
 ****
 27  28  29  34  36  39  40  41  42  43  44  45  46 0
 3-21G
 ****


