%nproc=1
%NoSave
%Mem=1900MB
#P OB98/GEN NMR

erre ene a

0 1
  C      -89.431    -205.332    -289.215
  O      -90.781    -205.031    -289.501
  P      -92.012    -205.767    -288.800
  C      -93.540    -205.495    -290.883
  O      -93.369    -205.249    -289.492
  C      -94.883    -204.974    -291.425
  O      -95.965    -205.663    -290.767
  C      -95.046    -203.488    -291.079
  O      -94.457    -202.497    -291.899
  C      -96.539    -203.307    -290.817
  O      -97.231    -202.780    -291.949
  C      -97.019    -204.722    -290.503
  N      -99.938    -202.955    -286.758
  C      -99.979    -202.656    -288.105
  N     -100.769    -201.620    -288.457
  N      -99.290    -203.302    -289.010
  C      -98.474    -204.249    -288.491
  C      -98.359    -204.644    -287.178
  C      -99.158    -203.950    -286.192
  O      -99.089    -204.129    -284.981
  N      -97.376    -205.586    -287.010
  C      -96.866    -205.735    -288.217
  N      -97.472    -204.914    -289.139
  O      -91.967    -205.884    -287.309
  O      -91.873    -207.258    -289.402
  H      -96.963    -201.852    -292.058
  H      -92.161    -207.883    -288.709
  H     -100.438    -202.369    -286.095
  H      -96.040    -206.390    -288.466
  H      -97.853    -205.001    -291.157
  H      -96.702    -202.597    -289.997
  H     -101.200    -201.010    -287.778
  H      -94.569    -203.337    -290.099
  H     -100.693    -201.268    -289.405
  H      -94.989    -205.191    -292.488
  H      -93.455    -206.574    -291.040
  H      -92.725    -205.023    -291.442
  P      -93.713    -201.172    -291.401
  C      -95.228    -199.475    -292.572
  O      -93.925    -200.028    -292.502
  O      -92.156    -201.520    -291.545
  O      -94.026    -200.761    -289.998
  H      -91.633    -200.939    -290.961
  H      -95.340    -198.949    -293.522
  H      -95.364    -198.761    -291.755
  H      -95.991    -200.257    -292.502
  H      -88.794    -204.710    -289.808
  H      -89.239    -206.360    -289.443
  H      -89.238    -205.155    -288.178

 3  4  5  6  7  8  9  10  11  12  23  26  30  31 0
 6-311+G(2d,p)
 ****
 33  35  36  37  38 0
 6-311+G(2d,p)
 ****
 1  2  13  14  15  16  17  18  19  20  21  22  24  25 0
 3-21G
 ****
 27  28  29  32  34  39  40  41  42  43  44  45  46  47  48  49 0
 3-21G
 ****


