%nproc=1
%NoSave
%Mem=1900MB
#P OB98/GEN NMR

erre ene a

0 1
  C       67.750     -46.004     -94.328
  O       68.772     -46.835     -93.804
  P       69.514     -47.843     -94.804
  C       68.181     -49.968     -94.133
  O       68.495     -49.033     -95.155
  C       67.875     -51.343     -94.730
  O       66.702     -51.253     -95.581
  C       69.014     -51.909     -95.584
  O       69.044     -53.337     -95.450
  C       68.581     -51.597     -97.001
  O       69.198     -52.474     -97.944
  C       67.066     -51.761     -96.880
  N       65.951     -51.707    -101.810
  C       66.486     -52.722    -101.043
  N       66.854     -53.843    -101.701
  N       66.644     -52.648     -99.748
  C       66.237     -51.464     -99.226
  C       65.678     -50.390     -99.881
  C       65.521     -50.481    -101.315
  O       65.080     -49.609    -102.055
  N       65.362     -49.381     -99.009
  C       65.768     -49.820     -97.834
  N       66.340     -51.064     -97.921
  O       70.601     -48.545     -93.861
  O       70.167     -47.190     -95.976
  H       68.895     -52.195     -98.829
  H       71.489     -48.190     -94.056
  H       65.861     -51.808    -102.807
  H       65.698     -49.274     -96.903
  H       66.772     -52.817     -96.915
  H       68.855     -50.568     -97.261
  H       66.822     -53.937    -102.705
  H       70.003     -51.502     -95.349
  H       67.291     -54.585    -101.169
  H       67.626     -52.030     -93.913
  H       67.308     -49.615     -93.583
  H       69.021     -50.040     -93.433
  P       70.491     -54.026     -95.569
  C       69.847     -54.999     -97.895
  O       70.751     -54.224     -97.136
  O       70.237     -55.511     -95.033
  O       71.567     -53.321     -94.812
  H       71.065     -55.889     -94.684
  H       69.376     -54.360     -98.648
  H       69.068     -55.452     -97.276
  H       70.400     -55.795     -98.401
  H       67.352     -45.392     -93.546
  H       66.970     -46.612     -94.736
  H       68.156     -45.381     -95.097

 3  4  5  6  7  8  9  10  11  12  23  26  30  31 0
 6-311+G(2d,p)
 ****
 33  35  36  37  38 0
 6-311+G(2d,p)
 ****
 1  2  13  14  15  16  17  18  19  20  21  22  24  25 0
 3-21G
 ****
 27  28  29  32  34  39  40  41  42  43  44  45  46  47  48  49 0
 3-21G
 ****


