%nproc=1
%NoSave
%Mem=1900MB
#P OB98/GEN NMR

erre ene a

0 1
  C     -279.347     194.292     206.441
  O     -279.025     194.246     205.067
  H     -280.350     193.876     206.584
  H     -279.343     195.323     206.807
  H     -278.631     193.691     207.014
  P     -277.675     194.945     204.561
  C     -278.692     197.201     203.857
  O     -278.098     195.986     203.415
  C     -279.451     197.884     202.713
  O     -278.529     198.099     201.608
  C     -280.633     197.060     202.183
  O     -281.697     197.957     201.845
  C     -280.061     196.418     200.936
  O     -281.077     196.055     200.016
  C     -279.085     197.486     200.431
  N     -278.053     196.909     199.579
  C     -277.723     197.632     198.419
  O     -278.289     198.704     198.174
  N     -276.827     197.100     197.532
  C     -276.333     195.917     197.749
  N     -275.473     195.428     196.812
  C     -276.667     195.105     198.936
  C     -277.518     195.659     199.800
  O     -276.562     194.022     204.187
  O     -277.262     195.898     205.787
  H     -281.677     195.394     200.446
  H     -276.671     195.417     206.402
  H     -276.234     194.124     199.069
  H     -277.836     195.133     200.700
  H     -279.617     198.266     199.867
  H     -279.517     195.506     201.204
  H     -280.995     196.314     202.902
  H     -279.779     198.871     203.050
  H     -275.293     196.012     195.991
  H     -277.887     197.864     204.212
  H     -275.059     194.508     196.841
  H     -279.376     197.003     204.689
  P     -283.072     197.948     202.677
  C     -284.660     196.619     201.183
  O     -284.308     197.918     201.644
  O     -283.173     199.006     203.734
  O     -283.105     196.480     203.339
  H     -283.585     196.525     204.184
  H     -285.485     196.692     200.506
  H     -284.936     196.007     202.016
  H     -283.824     196.180     200.680

 6  7  8  9  10  11  12  13  14  15  16  26  30  31  32  33  35 0
 6-311+G(2d,p)
 ****
 37  38 0
 6-311+G(2d,p)
 ****
 1  2  3  4  5  17  18  19  20  21  22  23  24  25 0
 3-21G
 ****
 27  28  29  34  36  39  40  41  42  43  44  45  46 0
 3-21G
 ****


