%nproc=1
%NoSave
%Mem=1900MB
#P OB98/GEN NMR

erre ene a

0 1
  C      696.706     305.767     134.114
  O      697.308     304.891     133.182
  H      695.652     305.890     133.855
  H      697.199     306.741     134.065
  H      696.774     305.363     135.131
  P      698.722     304.254     133.579
  C      697.926     301.825     134.050
  O      698.415     303.045     134.595
  C      698.311     300.650     134.949
  O      699.762     300.640     135.108
  C      697.684     300.699     136.359
  O      697.360     299.361     136.764
  C      698.831     301.200     137.213
  O      698.685     300.836     138.584
  C      700.018     300.532     136.523
  N      703.687     300.386     139.943
  C      702.647     299.507     139.702
  N      702.532     298.454     140.543
  N      701.793     299.654     138.730
  C      702.040     300.736     137.948
  C      703.033     301.683     138.084
  C      703.962     301.522     139.180
  O      704.890     302.279     139.458
  N      702.903     302.666     137.129
  C      701.828     302.318     136.442
  N      701.272     301.160     136.899
  O      699.366     305.380     134.519
  O      699.613     303.912     132.434
  H      699.527     301.032     139.042
  H      699.945     305.960     133.990
  H      704.308     300.239     140.726
  H      701.406     302.883     135.618
  H      700.107     299.467     136.774
  H      698.905     302.296     137.147
  H      703.160     298.259     141.306
  H      696.792     301.331     136.423
  H      701.791     297.779     140.350
  H      698.038     299.720     134.438
  H      698.366     301.678     133.058
  H      696.837     301.892     133.948
  P      696.193     299.161     137.837
  C      694.474     298.191     136.135
  O      694.780     299.218     137.062
  O      696.206     300.536     138.656
  O      696.380     297.985     138.732
  H      695.970     300.369     139.589
  H      693.509     298.371     135.709
  H      694.471     297.246     136.637
  H      695.210     298.180     135.359

 6  7  8  9  10  11  12  13  14  15  26  29  33  34 0
 6-311+G(2d,p)
 ****
 36  38  39  40  41 0
 6-311+G(2d,p)
 ****
 1  2  3  4  5  16  17  18  19  20  21  22  23  24  25 0
 3-21G
 ****
 27  28  30  31  32  35  37  42  43  44  45  46  47 0
 3-21G
 ****
 48  49 0
 3-21G
 ****


