%nproc=1
%NoSave
%Mem=1900MB
#P OB98/GEN NMR

erre ene a

0 1
  C      237.462    -224.773    -465.958
  O      238.249    -224.942    -467.143
  P      239.162    -223.707    -467.615
  C      241.290    -225.238    -467.651
  O      240.429    -224.355    -468.357
  C      242.162    -226.043    -468.629
  O      241.317    -226.949    -469.408
  C      242.966    -225.189    -469.623
  O      244.235    -225.848    -469.799
  C      242.136    -225.275    -470.883
  O      242.913    -224.991    -472.055
  C      241.620    -226.719    -470.796
  N      240.453    -226.963    -471.647
  C      240.626    -227.833    -472.717
  O      241.728    -228.331    -473.021
  N      239.516    -228.087    -473.477
  C      238.295    -227.501    -473.321
  O      237.326    -227.761    -474.031
  C      238.198    -226.510    -472.240
  C      239.262    -226.268    -471.480
  O      239.739    -223.195    -466.213
  O      238.402    -222.686    -468.401
  H      239.934    -223.914    -465.581
  H      243.828    -225.320    -471.902
  H      239.614    -228.742    -474.247
  H      237.264    -225.966    -472.133
  H      239.246    -225.526    -470.690
  H      242.408    -227.423    -471.083
  H      241.299    -224.567    -470.842
  H      243.118    -224.161    -469.270
  H      242.843    -226.669    -468.020
  H      240.698    -225.938    -467.044
  H      241.902    -224.664    -466.946
  P      245.554    -225.067    -469.300
  C      246.510    -227.139    -468.025
  O      246.669    -226.184    -469.043
  O      245.106    -224.645    -467.823
  O      245.946    -223.901    -470.151
  H      244.702    -225.379    -467.325
  H      247.242    -227.932    -468.155
  H      245.506    -227.585    -468.033
  H      246.679    -226.672    -467.042
  H      236.909    -225.669    -465.766
  H      236.783    -223.957    -466.094
  H      238.106    -224.566    -465.129

 3  4  5  6  7  8  9  10  11  12  13  24  28  29  30  31  32 0
 6-311+G(2d,p)
 ****
 33  34 0
 6-311+G(2d,p)
 ****
 1  2  14  15  16  17  18  19  20  21  22  23  25  26  27 0
 3-21G
 ****
 35  36  37  38  39  40  41  42  43  44  45 0
 3-21G
 ****


