%nproc=1
%NoSave
%Mem=1900MB
#P OB98/GEN NMR

erre ene a

0 1
  C      270.280     272.386    -373.817
  O      268.955     272.166    -373.382
  H      270.290     272.665    -374.874
  H      270.712     273.205    -373.236
  H      270.884     271.488    -373.665
  P      268.125     271.022    -374.141
  C      268.779     269.209    -372.407
  O      267.724     269.922    -373.039
  C      268.213     268.019    -371.635
  O      269.315     267.166    -371.240
  C      267.421     268.394    -370.369
  O      266.089     267.877    -370.446
  C      268.151     267.679    -369.241
  O      267.270     267.109    -368.276
  C      268.962     266.613    -369.965
  N      270.616     264.480    -365.642
  C      269.442     264.362    -366.302
  N      269.102     264.875    -367.504
  C      270.136     265.544    -368.045
  C      271.398     265.723    -367.504
  C      271.619     265.169    -366.231
  N      272.796     265.333    -365.533
  N      272.191     266.477    -368.352
  C      271.408     266.781    -369.366
  N      270.150     266.258    -369.215
  O      269.241     270.282    -375.021
  O      266.995     271.514    -374.983
  H      267.829     266.758    -367.557
  H      268.918     270.174    -375.936
  H      268.670     263.796    -365.794
  H      271.678     267.411    -370.202
  H      268.380     265.698    -370.139
  H      268.804     268.398    -368.731
  H      267.391     269.475    -370.196
  H      267.581     267.437    -372.320
  H      269.299     269.871    -371.707
  H      272.825     265.002    -364.583
  H      273.506     265.937    -365.922
  H      269.491     268.877    -373.167
  P      264.891     268.941    -370.308
  C      264.388     268.831    -372.860
  O      263.887     268.698    -371.534
  O      265.601     270.329    -370.682
  O      264.268     268.980    -368.952
  H      265.138     271.070    -370.248
  H      263.601     268.639    -373.559
  H      265.181     268.129    -373.014
  H      264.758     269.825    -373.003

 6  7  8  9  10  11  12  13  14  15  25  28  32  33  34  35 0
 6-311+G(2d,p)
 ****
 36  39  40 0
 6-311+G(2d,p)
 ****
 1  2  3  4  5  16  17  18  19  20  21  22  23  24 0
 3-21G
 ****
 26  27  29  30  31  37  38  41  42  43  44  45  46  47  48 0
 3-21G
 ****


