%nproc=1
%NoSave
%Mem=1900MB
#P OB98/GEN NMR

erre ene a

0 1
  C      296.521      82.590     126.631
  O      297.233      83.724     126.176
  H      295.839      82.894     127.432
  H      297.233      81.860     127.035
  H      295.945      82.137     125.824
  P      297.985      83.602     124.763
  C      297.490      86.039     124.019
  O      298.478      85.084     124.377
  C      298.126      87.187     123.231
  O      299.287      87.670     123.973
  C      298.598      86.803     121.821
  O      298.363      87.905     120.933
  C      300.098      86.641     122.000
  O      300.809      86.799     120.778
  C      300.374      87.733     123.027
  N      305.316      87.668     122.135
  C      304.265      88.083     121.340
  N      304.567      88.499     120.097
  N      303.020      88.102     121.742
  C      302.860      87.684     123.021
  C      303.813      87.235     123.904
  C      305.190      87.210     123.449
  O      306.158      86.829     124.092
  N      303.240      86.843     125.089
  C      301.945      87.023     124.909
  N      301.662      87.533     123.669
  O      296.781      83.325     123.744
  O      299.035      82.543     124.687
  H      300.429      86.185     120.121
  H      296.681      82.362     123.604
  H      306.256      87.667     121.774
  H      301.174      86.789     125.631
  H      300.390      88.737     122.583
  H      300.318      85.647     122.405
  H      305.503      88.555     119.722
  H      298.112      85.900     121.427
  H      303.816      88.852     119.513
  H      297.400      88.019     123.188
  H      297.036      86.440     124.935
  H      296.715      85.558     123.422
  P      297.004      87.922     120.083
  C      297.240      90.505     120.263
  O      296.775      89.401     119.505
  O      295.873      87.791     121.213
  O      296.905      86.814     119.079
  H      295.117      87.269     120.868
  H      297.013      91.414     119.746
  H      298.299      90.426     120.396
  H      296.760      90.509     121.219

 6  7  8  9  10  11  12  13  14  15  26  29  33  34 0
 6-311+G(2d,p)
 ****
 36  38  39  40  41 0
 6-311+G(2d,p)
 ****
 1  2  3  4  5  16  17  18  19  20  21  22  23  24  25 0
 3-21G
 ****
 27  28  30  31  32  35  37  42  43  44  45  46  47 0
 3-21G
 ****
 48  49 0
 3-21G
 ****


