%nproc=1
%NoSave
%Mem=1900MB
#P OB98/GEN NMR

erre ene a

0 1
  C      773.646    -898.460    -858.753
  O      774.846    -899.190    -858.880
  H      773.510    -897.810    -859.628
  H      772.808    -899.160    -858.706
  H      773.654    -897.850    -857.846
  P      776.193    -898.320    -858.990
  C      777.138    -898.250    -856.576
  O      776.386    -897.580    -857.569
  C      777.289    -897.370    -855.342
  O      777.859    -896.090    -855.766
  C      775.975    -897.080    -854.607
  O      776.111    -897.340    -853.207
  C      775.747    -895.590    -854.802
  O      775.132    -894.970    -853.687
  C      777.167    -895.070    -855.034
  N      775.243    -890.350    -855.149
  C      775.379    -891.240    -854.142
  N      775.982    -892.450    -854.156
  C      776.529    -892.680    -855.360
  C      776.499    -891.880    -856.481
  C      775.799    -890.650    -856.350
  N      775.621    -889.780    -857.398
  N      777.155    -892.470    -857.545
  C      777.539    -893.650    -857.082
  N      777.169    -893.830    -855.775
  O      775.792    -897.130    -859.986
  O      777.380    -899.080    -859.490
  H      775.047    -894.020    -853.881
  H      776.361    -897.180    -860.779
  H      774.926    -890.940    -853.191
  H      778.041    -894.420    -857.663
  H      777.705    -894.920    -854.097
  H      775.124    -895.450    -855.685
  H      775.129    -897.670    -855.009
  H      778.016    -897.840    -854.675
  H      778.139    -898.500    -856.978
  H      775.010    -888.990    -857.245
  H      775.932    -890.060    -858.315
  H      776.628    -899.200    -856.319
  P      775.983    -898.880    -852.754
  C      778.442    -899.090    -851.898
  O      777.458    -899.550    -852.828
  O      775.208    -899.560    -853.971
  O      775.270    -899.080    -851.467
  H      774.399    -900.000    -853.662
  H      779.360    -899.615    -852.061
  H      778.101    -899.269    -850.900
  H      778.602    -898.041    -852.037

 6  7  8  9  10  11  12  13  14  15  25  28  32  33  34  35 0
 6-311+G(2d,p)
 ****
 36  39  40 0
 6-311+G(2d,p)
 ****
 1  2  3  4  5  16  17  18  19  20  21  22  23  24 0
 3-21G
 ****
 26  27  29  30  31  37  38  41  42  43  44  45  46  47  48 0
 3-21G
 ****


