%nproc=1
%NoSave
%Mem=1900MB
#P OB98/GEN NMR

erre ene a

0 1
  C      241.667     -99.372    -156.820
  O      240.567    -100.185    -157.180
  H      241.338     -98.330    -156.788
  H      242.465     -99.467    -157.564
  H      242.040     -99.656    -155.833
  P      240.866    -101.754    -157.342
  C      241.491    -101.236    -159.806
  O      241.853    -101.897    -158.601
  C      241.453    -102.224    -160.968
  O      242.762    -102.786    -161.206
  C      240.501    -103.398    -160.764
  O      239.173    -103.042    -161.113
  C      241.100    -104.433    -161.707
  O      240.701    -104.179    -163.073
  C      242.607    -104.196    -161.529
  N      246.716    -106.898    -160.385
  C      246.369    -106.259    -161.556
  N      247.232    -106.376    -162.593
  N      245.268    -105.570    -161.712
  C      244.474    -105.585    -160.615
  C      244.705    -106.185    -159.396
  C      245.952    -106.895    -159.224
  O      246.356    -107.412    -158.183
  N      243.667    -105.955    -158.526
  C      242.799    -105.254    -159.228
  N      243.241    -105.007    -160.504
  O      239.480    -102.344    -157.893
  O      241.294    -102.457    -156.097
  H      241.099    -103.341    -163.368
  H      239.329    -103.219    -157.489
  H      247.590    -107.386    -160.314
  H      241.845    -104.890    -158.860
  H      243.161    -104.376    -162.456
  H      240.758    -105.442    -161.468
  H      247.921    -107.112    -162.630
  H      240.554    -103.774    -159.733
  H      246.938    -105.970    -163.473
  H      241.178    -101.662    -161.869
  H      242.231    -100.455    -160.017
  H      240.508    -100.774    -159.679
  P      237.969    -103.703    -160.286
  C      237.647    -105.839    -161.729
  O      238.051    -105.295    -160.479
  O      236.679    -103.285    -161.137
  O      237.852    -103.234    -158.872
  H      236.193    -102.579    -160.678
  H      237.757    -106.903    -161.707
  H      238.257    -105.433    -162.509
  H      236.623    -105.590    -161.912

 6  7  8  9  10  11  12  13  14  15  26  29  33  34 0
 6-311+G(2d,p)
 ****
 36  38  39  40  41 0
 6-311+G(2d,p)
 ****
 1  2  3  4  5  16  17  18  19  20  21  22  23  24  25 0
 3-21G
 ****
 27  28  30  31  32  35  37  42  43  44  45  46  47 0
 3-21G
 ****
 48  49 0
 3-21G
 ****


