%nproc=1
%NoSave
%Mem=1900MB
#P OB98/GEN NMR

erre ene a

0 1
  C     -338.887     387.307     110.233
  O     -338.926     385.871     110.218
  P     -339.480     384.991     111.441
  C     -342.065     385.089     111.402
  O     -340.900     384.377     111.010
  C     -343.329     384.405     110.863
  O     -344.511     385.083     111.350
  C     -343.481     384.425     109.352
  O     -342.599     383.526     108.705
  C     -344.959     384.075     109.196
  O     -345.166     382.654     109.231
  C     -345.586     384.729     110.446
  N     -346.407     385.886     110.129
  C     -347.785     385.741     110.299
  O     -348.265     384.655     110.622
  N     -348.590     386.837     110.083
  C     -348.076     387.936     109.637
  N     -348.921     388.988     109.456
  C     -346.648     388.084     109.309
  C     -345.878     387.033     109.581
  O     -339.511     385.716     112.745
  O     -338.516     383.715     111.511
  H     -338.505     383.365     112.423
  H     -346.108     382.512     109.461
  H     -346.266     389.010     108.895
  H     -344.809     387.062     109.386
  H     -346.191     383.998     110.993
  H     -345.375     384.434     108.248
  H     -343.309     385.445     108.984
  H     -343.340     383.371     111.236
  H     -349.893     388.856     109.700
  H     -342.012     386.102     110.992
  H     -348.616     389.898     109.135
  H     -342.095     385.159     112.496
  P     -341.736     384.106     107.486
  C     -339.352     383.981     108.499
  O     -340.275     383.456     107.569
  O     -341.500     385.636     107.882
  O     -342.397     383.990     106.152
  H     -341.558     386.197     107.088
  H     -338.648     383.193     108.780
  H     -339.850     384.351     109.400
  H     -338.793     384.798     108.034
  H     -338.479     387.662     109.310
  H     -338.274     387.639     111.045
  H     -339.879     387.689     110.355

 3  4  5  6  7  8  9  10  11  12  13  24  27  28  29  30  32 0
 6-311+G(2d,p)
 ****
 34  35 0
 6-311+G(2d,p)
 ****
 1  2  14  15  16  17  18  19  20  21  22  23  25  26 0
 3-21G
 ****
 31  33  36  37  38  39  40  41  42  43  44  45  46 0
 3-21G
 ****


