%nproc=1
%NoSave
%Mem=1900MB
#P OB98/GEN NMR

erre ene a

0 1
  C      115.458     -33.912     -57.575
  O      114.322     -33.862     -56.722
  P      113.548     -32.460     -56.596
  C      111.673     -33.302     -58.184
  O      112.679     -32.326     -57.938
  C      110.302     -32.641     -58.293
  O      110.312     -31.645     -59.334
  C      109.169     -33.593     -58.647
  O      108.682     -34.293     -57.515
  C      108.121     -32.616     -59.156
  O      107.457     -31.988     -58.045
  C      108.978     -31.591     -59.907
  N      106.319     -31.725     -64.272
  C      105.941     -31.505     -62.995
  N      106.708     -31.496     -61.885
  C      107.985     -31.788     -62.187
  C      108.509     -32.072     -63.437
  C      107.617     -32.022     -64.520
  N      108.009     -32.217     -65.825
  N      109.860     -32.325     -63.350
  C      110.150     -32.186     -62.075
  N      109.053     -31.852     -61.332
  O      114.715     -31.385     -56.803
  O      112.815     -32.256     -55.315
  H      106.807     -32.632     -57.703
  H      114.460     -30.533     -56.398
  H      104.885     -31.299     -62.845
  H      111.137     -32.308     -61.648
  H      108.611     -30.567     -59.779
  H      107.347     -33.099     -59.760
  H      109.459     -34.274     -59.457
  H      110.095     -32.134     -57.342
  H      111.660     -34.017     -57.357
  H      107.354     -31.984     -66.554
  H      109.003     -32.239     -66.024
  H      111.914     -33.838     -59.107
  P      107.958     -35.700     -57.790
  C      108.519     -36.751     -55.481
  O      108.737     -36.762     -56.878
  O      108.416     -36.057     -59.280
  O      106.474     -35.661     -57.644
  H      107.763     -36.644     -59.706
  H      108.863     -37.701     -55.065
  H      107.457     -36.632     -55.247
  H      109.089     -35.938     -55.024
  H      115.870     -34.899     -57.562
  H      116.193     -33.214     -57.232
  H      115.166     -33.660     -58.573

 3  4  5  6  7  8  9  10  11  12  22  25  29  30  31  32 0
 6-311+G(2d,p)
 ****
 33  36  37 0
 6-311+G(2d,p)
 ****
 1  2  13  14  15  16  17  18  19  20  21  23  24  26 0
 3-21G
 ****
 27  28  34  35  38  39  40  41  42  43  44  45  46  47  48 0
 3-21G
 ****


