%nproc=1
%NoSave
%Mem=1900MB
#P OB98/GEN NMR

erre ene a

0 1
  C      292.461     192.881    -207.267
  O      291.708     193.302    -208.384
  H      291.787     192.411    -206.547
  H      292.939     193.741    -206.791
  H      293.217     192.152    -207.569
  P      292.511     194.004    -209.588
  C      292.123     192.004    -211.211
  O      291.878     193.376    -210.928
  C      290.868     191.346    -211.787
  O      289.904     191.144    -210.727
  C      290.192     192.181    -212.881
  O      289.791     191.325    -213.953
  C      288.976     192.782    -212.188
  O      287.928     193.084    -213.108
  C      288.649     191.710    -211.142
  N      287.917     192.274    -210.005
  C      286.524     192.319    -210.111
  O      285.965     191.909    -211.134
  N      285.800     192.875    -209.089
  C      286.414     193.396    -208.069
  N      285.643     193.951    -207.096
  C      287.883     193.415    -207.938
  C      288.565     192.836    -208.928
  O      293.956     193.325    -209.497
  O      292.539     195.496    -209.550
  H      287.143     193.365    -212.594
  H      294.619     193.813    -210.045
  H      288.352     193.872    -207.079
  H      289.650     192.804    -208.915
  H      288.042     190.909    -211.583
  H      289.269     193.716    -211.693
  H      290.836     192.965    -213.274
  H      291.137     190.352    -212.163
  H      284.638     193.932    -207.231
  H      292.412     191.498    -210.284
  H      286.014     194.410    -206.278
  H      292.941     191.928    -211.935
  P      290.399     191.684    -215.397
  C      291.390     189.302    -215.662
  O      290.552     190.306    -216.213
  O      291.905     192.111    -215.076
  O      289.644     192.755    -216.114
  H      291.990     193.083    -215.050
  H      291.396     188.449    -216.307
  H      291.021     189.018    -214.699
  H      292.385     189.682    -215.564

 6  7  8  9  10  11  12  13  14  15  16  26  30  31  32  33  35 0
 6-311+G(2d,p)
 ****
 37  38 0
 6-311+G(2d,p)
 ****
 1  2  3  4  5  17  18  19  20  21  22  23  24  25 0
 3-21G
 ****
 27  28  29  34  36  39  40  41  42  43  44  45  46 0
 3-21G
 ****


