%nproc=1
%NoSave
%Mem=1900MB
#P OB98/GEN NMR

erre ene a

0 1
  C      -50.703     331.725      15.195
  O      -50.544     330.357      14.853
  P      -49.759     329.356      15.826
  C      -48.041     328.818      13.985
  O      -49.014     328.292      14.875
  C      -47.301     327.687      13.265
  O      -46.631     326.865      14.256
  C      -48.216     326.781      12.455
  O      -47.530     326.368      11.271
  C      -48.413     325.564      13.342
  O      -48.729     324.396      12.560
  C      -47.077     325.505      14.082
  N      -45.076     322.059      17.317
  C      -44.692     322.463      16.089
  N      -45.283     323.363      15.276
  C      -46.362     323.910      15.875
  C      -46.867     323.601      17.127
  C      -46.179     322.622      17.866
  N      -46.564     322.219      19.127
  N      -48.004     324.347      17.394
  C      -48.159     325.103      16.330
  N      -47.184     324.885      15.387
  O      -50.579     328.750      16.911
  O      -48.548     330.226      16.408
  H      -49.148     323.746      13.162
  H      -48.388     330.007      17.344
  H      -43.790     321.997      15.701
  H      -48.959     325.814      16.184
  H      -46.314     324.970      13.505
  H      -49.250     325.740      14.028
  H      -49.165     327.258      12.189
  H      -46.525     328.134      12.629
  H      -47.323     329.408      14.566
  H      -45.940     321.604      19.628
  H      -47.276     322.762      19.604
  H      -48.530     329.483      13.263
  P      -48.450     326.180       9.960
  C      -47.771     323.660       9.875
  O      -47.824     324.899       9.208
  O      -48.567     327.438       9.166
  O      -49.816     325.657      10.607
  H      -49.664     325.230      11.473
  H      -47.287     322.929       9.223
  H      -48.785     323.307      10.097
  H      -47.200     323.745      10.807
  H      -51.251     332.224      14.423
  H      -49.741     332.180      15.301
  H      -51.237     331.802      16.119

 3  4  5  6  7  8  9  10  11  12  22  25  29  30  31  32 0
 6-311+G(2d,p)
 ****
 33  36  37 0
 6-311+G(2d,p)
 ****
 1  2  13  14  15  16  17  18  19  20  21  23  24  26 0
 3-21G
 ****
 27  28  34  35  38  39  40  41  42  43  44  45  46  47  48 0
 3-21G
 ****


