%nproc=1
%NoSave
%Mem=1900MB
#P OB98/GEN NMR

erre ene a

0 1
  C       22.004       4.569      38.384
  O       20.924       5.367      37.952
  H       21.645       3.546      38.526
  H       22.381       4.945      39.339
  H       22.813       4.558      37.649
  P       21.237       6.772      37.253
  C       21.022       5.696      34.918
  O       21.833       6.470      35.793
  C       20.827       6.382      33.565
  O       22.101       6.797      33.027
  C       20.213       5.447      32.523
  O       18.801       5.348      32.555
  C       20.687       6.080      31.219
  O       19.799       7.132      30.806
  C       22.055       6.652      31.597
  N       25.488       5.676      27.943
  C       24.469       6.608      27.952
  N       24.310       7.330      26.820
  N       23.673       6.796      28.971
  C       23.889       5.937      29.994
  C       24.858       4.963      30.094
  C       25.770       4.801      28.981
  O       26.685       3.985      28.919
  N       24.772       4.289      31.288
  C       23.710       4.802      31.874
  N       23.155       5.823      31.139
  O       22.525       7.308      38.046
  O       20.123       7.772      37.297
  H       20.111       7.480      29.952
  H       22.555       8.281      38.009
  H       26.088       5.594      27.141
  H       23.317       4.491      32.835
  H       22.205       7.651      31.170
  H       20.716       5.352      30.403
  H       24.822       7.141      25.973
  H       20.654       4.448      32.600
  H       23.426       7.824      26.690
  H       20.223       7.287      33.703
  H       20.057       5.569      35.414
  H       21.451       4.700      34.783
  P       18.070       4.094      31.880
  C       17.941       2.912      34.194
  O       18.321       2.835      32.838
  O       18.989       3.793      30.605
  O       16.649       4.326      31.498
  H       18.610       4.213      29.810
  H       18.179       1.991      34.684
  H       16.888       3.089      34.260
  H       18.468       3.714      34.667

 6  7  8  9  10  11  12  13  14  15  26  29  33  34 0
 6-311+G(2d,p)
 ****
 36  38  39  40  41 0
 6-311+G(2d,p)
 ****
 1  2  3  4  5  16  17  18  19  20  21  22  23  24  25 0
 3-21G
 ****
 27  28  30  31  32  35  37  42  43  44  45  46  47 0
 3-21G
 ****
 48  49 0
 3-21G
 ****


