%nproc=1
%NoSave
%Mem=1900MB
#P OB98/GEN NMR

erre ene a

0 1
  C     -328.170    -228.705    -374.188
  O     -328.844    -229.622    -375.034
  H     -327.313    -228.293    -374.734
  H     -327.807    -229.203    -373.287
  H     -328.835    -227.885    -373.919
  P     -329.985    -230.546    -374.387
  C     -328.999    -232.863    -374.965
  O     -329.237    -231.902    -373.941
  C     -328.065    -233.971    -374.469
  O     -326.706    -233.485    -374.396
  C     -328.391    -234.467    -373.067
  O     -329.598    -235.195    -372.976
  C     -327.084    -235.126    -372.637
  O     -326.966    -236.484    -373.063
  C     -326.033    -234.253    -373.376
  N     -325.288    -233.405    -372.458
  C     -324.375    -234.061    -371.638
  O     -324.208    -235.283    -371.633
  N     -323.685    -233.261    -370.756
  C     -323.855    -231.918    -370.600
  O     -323.231    -231.270    -369.761
  C     -324.852    -231.285    -371.475
  C     -325.511    -232.045    -372.357
  O     -331.202    -230.777    -375.236
  O     -330.306    -229.834    -372.988
  H     -327.702    -236.979    -372.654
  H     -331.166    -230.150    -372.617
  H     -323.012    -233.722    -370.156
  H     -325.007    -230.217    -371.378
  H     -326.251    -231.602    -373.013
  H     -325.318    -234.902    -373.904
  H     -326.973    -235.112    -371.544
  H     -328.520    -233.592    -372.423
  H     -328.090    -234.802    -375.197
  H     -328.524    -232.347    -375.805
  H     -329.951    -233.290    -375.303
  P     -330.419    -235.379    -371.615
  C     -330.402    -237.977    -371.646
  O     -330.004    -236.790    -370.963
  O     -331.858    -234.992    -371.634
  O     -329.657    -234.323    -370.645
  H     -330.321    -233.956    -370.037
  H     -330.060    -238.833    -371.102
  H     -329.975    -237.984    -372.627
  H     -331.469    -238.005    -371.721

 6  7  8  9  10  11  12  13  14  15  16  26  31  32  33  34  35 0
 6-311+G(2d,p)
 ****
 36  37 0
 6-311+G(2d,p)
 ****
 1  2  3  4  5  17  18  19  20  21  22  23  24  25 0
 3-21G
 ****
 27  28  29  30  38  39  40  41  42  43  44  45 0
 3-21G
 ****


