%nproc=1
%NoSave
%Mem=1900MB
#P OB98/GEN NMR

erre ene a

0 1
  C      584.187     -57.277     -47.904
  O      583.032     -56.491     -47.610
  P      582.898     -54.992     -48.166
  C      580.349     -55.092     -48.330
  O      581.460     -54.403     -47.759
  C      579.975     -56.379     -47.576
  O      579.776     -56.117     -46.164
  C      578.714     -57.078     -48.085
  O      578.942     -58.480     -47.901
  C      577.651     -56.571     -47.125
  O      576.493     -57.386     -47.113
  C      578.448     -56.528     -45.812
  N      577.839     -55.633     -44.828
  C      576.789     -56.145     -44.069
  O      576.366     -57.283     -44.284
  N      576.206     -55.347     -43.117
  C      576.580     -54.109     -43.003
  N      575.945     -53.352     -42.065
  C      577.628     -53.498     -43.847
  C      578.215     -54.317     -44.720
  O      583.252     -54.826     -49.605
  O      583.910     -54.149     -47.244
  H      576.772     -58.328     -47.083
  H      584.264     -53.397     -47.758
  H      577.889     -52.453     -43.739
  H      579.004     -53.970     -45.378
  H      578.515     -57.530     -45.372
  H      577.345     -55.560     -47.417
  H      578.482     -56.856     -49.130
  H      580.838     -57.060     -47.655
  H      575.210     -53.798     -41.531
  H      580.587     -55.340     -49.367
  H      576.082     -52.358     -41.979
  H      579.486     -54.411     -48.347
  P      578.684     -59.546     -49.071
  C      580.239     -61.396     -48.249
  O      578.895     -60.994     -48.432
  O      579.450     -59.297     -50.324
  O      577.100     -59.484     -49.334
  H      576.907     -59.889     -50.201
  H      580.262     -62.299     -47.625
  H      580.822     -60.615     -47.770
  H      580.687     -61.634     -49.219
  H      584.089     -58.240     -47.447
  H      585.058     -56.788     -47.521
  H      584.280     -57.393     -48.964

 3  4  5  6  7  8  9  10  11  12  13  23  27  28  29  30  32 0
 6-311+G(2d,p)
 ****
 34  35 0
 6-311+G(2d,p)
 ****
 1  2  14  15  16  17  18  19  20  21  22  24  25  26 0
 3-21G
 ****
 31  33  36  37  38  39  40  41  42  43  44  45  46 0
 3-21G
 ****


