%nproc=1
%NoSave
%Mem=1900MB
#P OB98/GEN NMR

erre ene a

0 1
  C      595.053     331.954     521.687
  O      595.422     333.221     522.196
  H      594.253     332.088     520.955
  H      594.687     331.313     522.497
  H      595.907     331.479     521.199
  P      596.520     333.225     523.369
  C      595.056     335.194     524.256
  O      596.362     334.685     524.022
  C      595.077     336.119     525.470
  O      595.553     335.413     526.638
  C      596.000     337.322     525.317
  O      595.433     338.358     524.530
  C      596.147     337.734     526.776
  O      594.954     338.411     527.207
  C      596.288     336.358     527.459
  N      597.680     335.932     527.612
  C      598.300     336.229     528.832
  O      597.691     336.835     529.714
  N      599.616     335.869     529.011
  C      600.252     335.253     528.069
  N      601.553     334.930     528.294
  C      599.633     334.899     526.772
  C      598.361     335.267     526.618
  O      597.912     333.346     522.584
  O      596.451     332.089     524.334
  H      594.218     337.781     527.109
  H      598.647     333.481     523.229
  H      600.207     334.399     526.011
  H      597.844     335.044     525.691
  H      595.816     336.366     528.452
  H      596.983     338.418     526.941
  H      596.982     337.036     524.937
  H      594.044     336.430     525.673
  H      601.969     335.234     529.166
  H      594.384     334.352     524.436
  H      602.173     334.617     527.560
  H      594.707     335.750     523.386
  P      596.431     339.266     523.664
  C      595.154     341.267     524.714
  O      595.768     340.722     523.554
  O      596.266     338.675     522.186
  O      597.861     339.244     524.119
  H      597.120     338.654     521.717
  H      594.760     342.236     524.487
  H      595.880     341.351     525.496
  H      594.360     340.624     525.033

 6  7  8  9  10  11  12  13  14  15  16  26  30  31  32  33  35 0
 6-311+G(2d,p)
 ****
 37  38 0
 6-311+G(2d,p)
 ****
 1  2  3  4  5  17  18  19  20  21  22  23  24  25 0
 3-21G
 ****
 27  28  29  34  36  39  40  41  42  43  44  45  46 0
 3-21G
 ****


