%nproc=1
%NoSave
%Mem=1900MB
#P OB98/GEN NMR

erre ene a

0 1
  C      148.342    -787.729     203.951
  O      147.962    -789.094     204.161
  P      148.190    -789.871     205.546
  C      146.775    -788.427     207.157
  O      146.903    -789.677     206.483
  C      145.699    -788.488     208.248
  O      144.393    -788.280     207.692
  C      145.618    -789.820     208.994
  O      146.688    -789.949     209.924
  C      144.233    -789.717     209.621
  O      144.269    -788.948     210.837
  C      143.442    -788.976     208.525
  N      142.599    -789.881     207.739
  C      142.899    -789.977     206.377
  O      143.789    -789.284     205.874
  N      142.159    -790.855     205.601
  C      141.171    -791.499     206.129
  N      140.480    -792.349     205.324
  C      140.764    -791.357     207.546
  C      141.526    -790.533     208.284
  O      149.487    -789.539     206.218
  O      148.147    -791.430     205.162
  H      145.039    -789.261     211.340
  H      148.728    -791.923     205.768
  H      139.921    -791.894     207.948
  H      141.302    -790.383     209.328
  H      142.803    -788.201     208.971
  H      143.816    -790.697     209.876
  H      145.639    -790.644     208.270
  H      145.901    -787.668     208.953
  H      140.780    -792.423     204.361
  H      146.491    -787.669     206.414
  H      139.697    -792.900     205.635
  H      147.742    -788.152     207.584
  P      147.344    -791.389     210.189
  C      149.575    -790.840     209.047
  O      148.923    -791.198     210.262
  O      146.870    -792.487     209.284
  O      146.948    -791.694     211.715
  H      146.850    -792.659     211.824
  H      150.527    -790.360     209.294
  H      148.959    -790.141     208.468
  H      149.770    -791.736     208.466
  H      148.088    -787.438     202.953
  H      149.397    -787.626     204.095
  H      147.824    -787.103     204.648

 3  4  5  6  7  8  9  10  11  12  13  23  27  28  29  30  32 0
 6-311+G(2d,p)
 ****
 34  35 0
 6-311+G(2d,p)
 ****
 1  2  14  15  16  17  18  19  20  21  22  24  25  26 0
 3-21G
 ****
 31  33  36  37  38  39  40  41  42  43  44  45  46 0
 3-21G
 ****


