%nproc=1
%NoSave
%Mem=1900MB
#P OB98/GEN NMR

erre ene a

0 1
  C     -375.775     299.282    -266.399
  O     -375.174     299.075    -267.661
  H     -375.409     300.210    -265.952
  H     -376.858     299.363    -266.537
  H     -375.566     298.439    -265.734
  P     -373.575     298.919    -267.679
  C     -373.076     300.482    -269.695
  O     -373.134     299.151    -269.206
  C     -373.216     300.480    -271.211
  O     -372.121     299.752    -271.814
  C     -374.490     299.809    -271.724
  O     -375.615     300.672    -271.660
  C     -374.091     299.528    -273.163
  O     -374.175     300.737    -273.939
  C     -372.632     299.090    -273.008
  N     -372.707     294.602    -275.464
  C     -372.935     295.866    -275.887
  N     -372.901     297.007    -275.166
  C     -372.586     296.750    -273.888
  C     -372.336     295.519    -273.309
  C     -372.396     294.404    -274.163
  N     -372.179     293.114    -273.731
  N     -372.085     295.656    -271.955
  C     -372.153     296.953    -271.729
  N     -372.466     297.655    -272.861
  O     -373.345     297.350    -267.468
  O     -372.831     299.744    -266.683
  H     -375.120     300.979    -273.979
  H     -372.441     297.182    -267.144
  H     -373.179     295.971    -276.939
  H     -371.985     297.427    -270.772
  H     -372.004     299.415    -273.849
  H     -374.738     298.792    -273.647
  H     -374.680     298.861    -271.209
  H     -373.158     301.522    -271.561
  H     -372.115     300.928    -269.420
  H     -372.423     292.374    -274.377
  H     -372.096     292.942    -272.738
  H     -373.881     301.071    -269.237
  P     -376.710     300.369    -270.526
  C     -378.966     300.608    -271.797
  O     -378.003     301.214    -270.938
  O     -376.140     301.144    -269.249
  O     -376.938     298.917    -270.252
  H     -376.453     300.738    -268.425
  H     -379.765     301.296    -271.978
  H     -379.353     299.725    -271.332
  H     -378.502     300.348    -272.726

 6  7  8  9  10  11  12  13  14  15  25  28  32  33  34  35 0
 6-311+G(2d,p)
 ****
 36  39  40 0
 6-311+G(2d,p)
 ****
 1  2  3  4  5  16  17  18  19  20  21  22  23  24 0
 3-21G
 ****
 26  27  29  30  31  37  38  41  42  43  44  45  46  47 0
 3-21G
 ****
 48 0
 3-21G
 ****


