%nproc=1
%NoSave
%Mem=1900MB
#P OB98/GEN NMR

erre ene a

0 1
  C      -74.551      62.193     -41.438
  O      -75.937      62.433     -41.347
  H      -74.286      62.078     -42.493
  H      -74.303      61.268     -40.910
  H      -73.972      63.021     -41.020
  P      -76.521      63.069     -39.999
  C      -77.239      60.748     -39.127
  O      -76.491      61.930     -38.867
  C      -76.701      59.548     -38.347
  O      -75.309      59.329     -38.667
  C      -76.758      59.765     -36.833
  O      -78.000      59.466     -36.224
  C      -75.665      58.819     -36.343
  O      -76.179      57.486     -36.176
  C      -74.643      58.861     -37.481
  N      -69.596      59.195     -36.750
  C      -70.371      58.072     -36.969
  N      -69.728      56.885     -36.929
  N      -71.659      58.116     -37.186
  C      -72.182      59.363     -37.101
  C      -71.518      60.548     -36.877
  C      -70.082      60.494     -36.692
  O      -69.350      61.458     -36.488
  N      -72.383      61.616     -36.863
  C      -73.574      61.068     -37.003
  N      -73.501      59.706     -37.178
  O      -78.090      63.214     -40.300
  O      -75.925      64.386     -39.600
  H      -75.427      56.886     -36.015
  H      -78.467      63.933     -39.761
  H      -68.604      59.104     -36.617
  H      -74.513      61.612     -37.013
  H      -74.252      57.861     -37.707
  H      -75.269      59.129     -35.371
  H      -68.762      56.793     -36.651
  H      -76.462      60.789     -36.584
  H      -70.290      56.038     -36.819
  H      -77.249      58.646     -38.648
  H      -77.167      60.559     -40.200
  H      -78.296      60.911     -38.897
  P      -78.467      60.267     -34.920
  C      -77.179      58.468     -33.548
  O      -77.485      59.834     -33.728
  O      -79.854      59.562     -34.547
  O      -78.624      61.737     -35.107
  H      -80.600      60.075     -34.908
  H      -76.516      58.358     -32.715
  H      -76.709      58.089     -34.431
  H      -78.080      57.922     -33.361

 6  7  8  9  10  11  12  13  14  15  26  29  33  34 0
 6-311+G(2d,p)
 ****
 36  38  39  40  41 0
 6-311+G(2d,p)
 ****
 1  2  3  4  5  16  17  18  19  20  21  22  23  24  25 0
 3-21G
 ****
 27  28  30  31  32  35  37  42  43  44  45  46  47 0
 3-21G
 ****
 48  49 0
 3-21G
 ****


