%nproc=1
%NoSave
%Mem=1900MB
#P OB98/GEN NMR

erre ene a

0 1
  C     -310.114     -63.991     193.754
  O     -309.494     -65.196     194.211
  P     -310.000     -66.604     193.649
  C     -307.791     -67.503     192.646
  O     -309.107     -67.026     192.387
  C     -306.769     -66.400     192.357
  O     -306.993     -65.238     193.193
  C     -305.339     -66.825     192.666
  O     -304.763     -67.796     191.817
  C     -304.622     -65.490     192.780
  O     -304.248     -64.983     191.497
  C     -305.717     -64.603     193.418
  N     -305.487     -64.362     194.844
  C     -304.299     -63.714     195.169
  O     -303.453     -63.393     194.338
  N     -304.096     -63.479     196.502
  C     -304.930     -63.851     197.520
  O     -304.686     -63.633     198.699
  C     -306.156     -64.552     197.114
  C     -306.378     -64.772     195.816
  O     -311.475     -66.737     193.459
  O     -309.498     -67.634     194.780
  H     -304.986     -65.170     190.885
  H     -310.205     -68.293     194.919
  H     -303.244     -63.005     196.758
  H     -306.838     -64.866     197.892
  H     -307.277     -65.288     195.495
  H     -305.758     -63.626     192.918
  H     -303.703     -65.572     193.368
  H     -305.329     -67.272     193.671
  H     -306.878     -66.085     191.320
  H     -307.587     -68.378     192.028
  H     -307.735     -67.837     193.687
  P     -304.892     -69.373     192.075
  C     -306.195     -70.083     189.949
  O     -306.218     -69.902     191.347
  O     -304.626     -69.865     193.459
  O     -303.740     -69.943     191.106
  H     -303.362     -70.743     191.514
  H     -307.180     -70.429     189.626
  H     -305.452     -70.837     189.672
  H     -305.972     -69.138     189.444
  H     -309.654     -63.150     194.230
  H     -311.156     -64.012     193.996
  H     -309.996     -63.909     192.694

 3  4  5  6  7  8  9  10  11  12  13  23  28  29  30  31  32 0
 6-311+G(2d,p)
 ****
 33  34 0
 6-311+G(2d,p)
 ****
 1  2  14  15  16  17  18  19  20  21  22  24  25  26  27 0
 3-21G
 ****
 35  36  37  38  39  40  41  42  43  44  45 0
 3-21G
 ****


