%nproc=1
%NoSave
%Mem=1900MB
#P OB98/GEN NMR

erre ene a

0 1
  C      440.876     552.812     300.454
  O      440.650     553.586     301.615
  H      441.908     552.967     300.127
  H      440.203     553.123     299.645
  H      440.735     551.748     300.671
  P      439.165     553.620     302.230
  C      439.097     556.115     301.524
  O      438.920     555.170     302.575
  C      439.698     557.409     302.068
  O      438.992     557.845     303.255
  C      441.155     557.309     302.500
  O      442.062     557.252     301.412
  C      441.284     558.592     303.301
  O      441.385     559.710     302.398
  C      439.932     558.610     304.062
  N      440.029     558.053     305.403
  C      439.541     558.842     306.454
  O      439.062     559.954     306.229
  N      439.647     558.375     307.744
  C      440.200     557.226     307.967
  N      440.314     556.829     309.269
  C      440.707     556.353     306.896
  C      440.591     556.820     305.651
  O      438.890     552.664     303.349
  O      438.207     553.416     300.965
  H      440.643     559.629     301.772
  H      437.275     553.420     301.295
  H      441.167     555.400     307.134
  H      440.966     556.246     304.808
  H      439.540     559.634     304.128
  H      442.166     558.617     303.945
  H      441.304     556.455     303.172
  H      439.553     558.186     301.303
  H      439.996     557.470     309.978
  H      438.116     556.296     301.066
  H      440.971     556.090     309.538
  H      439.772     555.713     300.764
  P      443.604     556.921     301.731
  C      444.170     559.407     301.171
  O      444.478     558.035     300.972
  O      443.865     555.587     300.880
  O      443.941     556.746     303.181
  H      443.725     554.792     301.423
  H      444.842     560.010     300.597
  H      444.271     559.648     302.208
  H      443.165     559.596     300.857

 6  7  8  9  10  11  12  13  14  15  16  26  30  31  32  33  35 0
 6-311+G(2d,p)
 ****
 37  38 0
 6-311+G(2d,p)
 ****
 1  2  3  4  5  17  18  19  20  21  22  23  24  25 0
 3-21G
 ****
 27  28  29  34  36  39  40  41  42  43  44  45  46 0
 3-21G
 ****


