%nproc=1
%NoSave
%Mem=1900MB
#P OB98/GEN NMR

erre ene a

0 1
  C       53.081     -90.912     649.268
  O       51.948     -91.660     649.679
  P       52.036     -93.258     649.618
  C       51.439     -93.447     647.078
  O       51.085     -93.737     648.425
  C       50.657     -94.356     646.129
  O       51.056     -95.733     646.286
  C       49.154     -94.349     646.372
  O       48.540     -93.188     645.823
  C       48.716     -95.641     645.703
  O       48.537     -95.450     644.293
  C       49.922     -96.561     645.991
  N       49.656     -97.525     647.046
  C       50.248     -98.774     646.909
  O       50.951     -99.073     645.945
  N       49.985     -99.678     647.901
  C       49.160     -99.487     648.966
  O       48.915    -100.362     649.788
  C       48.523     -98.167     649.045
  C       48.798     -97.259     648.101
  O       51.278     -93.742     650.935
  O       53.424     -93.805     649.537
  H       49.421     -95.278     643.911
  H       51.706     -94.544     651.295
  H       50.432    -100.587     647.823
  H       47.853     -97.975     649.881
  H       48.325     -96.272     648.135
  H       50.191     -97.118     645.082
  H       47.763     -96.009     646.101
  H       48.945     -94.410     647.456
  H       50.872     -94.050     645.095
  H       52.516     -93.619     646.945
  H       51.228     -92.398     646.867
  P       47.969     -92.095     646.862
  C       46.408     -93.581     648.344
  O       46.527     -92.642     647.289
  O       47.680     -90.868     645.865
  O       48.934     -91.777     647.960
  H       47.406     -91.174     644.975
  H       47.159     -93.407     649.125
  H       46.540     -94.587     647.938
  H       45.425     -93.498     648.779
  H       52.873     -89.867     649.364
  H       53.306     -91.138     648.247
  H       53.919     -91.167     649.883

 3  4  5  6  7  8  9  10  11  12  13  23  28  29  30  31  32 0
 6-311+G(2d,p)
 ****
 33  34 0
 6-311+G(2d,p)
 ****
 1  2  14  15  16  17  18  19  20  21  22  24  25  26 0
 3-21G
 ****
 27  35  36  37  38  39  40  41  42  43  44  45 0
 3-21G
 ****


