%nproc=1
%NoSave
%Mem=1900MB
#P OB98/GEN NMR

erre ene a

0 1
  C      -14.330      82.633     194.902
  O      -14.542      81.236     194.899
  H      -14.795      83.058     195.794
  H      -14.792      83.081     194.019
  H      -13.260      82.861     194.918
  P      -13.749      80.373     193.806
  C      -14.196      79.653     191.349
  O      -14.631      80.415     192.464
  C      -15.392      79.276     190.474
  O      -16.005      78.074     191.021
  C      -16.479      80.357     190.407
  O      -17.041      80.353     189.090
  C      -17.520      79.859     191.393
  O      -18.827      80.366     191.160
  C      -17.412      78.345     191.185
  N      -17.967      77.582     192.302
  C      -19.309      77.222     192.225
  O      -20.036      77.421     191.254
  N      -19.816      76.599     193.337
  C      -19.139      76.332     194.491
  O      -19.657      75.791     195.461
  C      -17.730      76.746     194.515
  C      -17.219      77.345     193.438
  O      -13.937      78.872     194.327
  O      -12.314      80.738     193.618
  H      -13.215      78.629     194.937
  H      -18.815      81.318     191.385
  H      -20.787      76.331     193.298
  H      -17.165      76.561     195.418
  H      -16.187      77.682     193.430
  H      -17.913      78.051     190.254
  H      -17.228      80.134     192.414
  H      -16.127      81.364     190.655
  H      -15.029      79.023     189.471
  H      -13.711      78.737     191.702
  H      -13.470      80.237     190.773
  P      -16.586      81.522     188.090
  C      -16.801      84.123     188.334
  O      -17.353      82.838     188.590
  O      -17.349      81.099     186.752
  O      -15.104      81.638     187.965
  H      -18.218      80.696     186.921
  H      -17.446      84.875     188.738
  H      -16.704      84.266     187.278
  H      -15.837      84.195     188.793

 6  7  8  9  10  11  12  13  14  15  16  27  31  32  33  34  35 0
 6-311+G(2d,p)
 ****
 36  37 0
 6-311+G(2d,p)
 ****
 1  2  3  4  5  17  18  19  20  21  22  23  24  25 0
 3-21G
 ****
 26  28  29  30  38  39  40  41  42  43  44  45 0
 3-21G
 ****


