%nproc=1
%NoSave
%Mem=1900MB
#P OB98/GEN NMR

erre ene a

0 1
  C     -686.315     539.791    -549.770
  O     -685.367     538.905    -550.337
  H     -686.424     539.555    -548.710
  H     -687.282     539.672    -550.261
  H     -685.970     540.822    -549.873
  P     -685.148     539.017    -551.927
  C     -683.532     541.040    -551.569
  O     -683.708     539.715    -552.058
  C     -682.124     541.529    -551.876
  O     -681.147     540.778    -551.110
  C     -681.696     541.370    -553.336
  O     -682.244     542.356    -554.188
  C     -680.190     541.515    -553.186
  O     -679.867     542.907    -552.968
  C     -679.937     540.678    -551.917
  N     -679.631     539.272    -552.218
  C     -678.547     539.033    -553.070
  O     -677.903     539.971    -553.542
  N     -678.243     537.735    -553.405
  C     -678.938     536.754    -552.912
  N     -678.596     535.493    -553.278
  C     -680.081     536.962    -551.994
  C     -680.363     538.227    -551.688
  O     -686.146     540.196    -552.360
  O     -685.311     537.751    -552.706
  H     -679.961     543.355    -553.833
  H     -685.977     540.443    -553.299
  H     -680.636     536.120    -551.614
  H     -681.185     538.455    -551.017
  H     -679.111     541.097    -551.324
  H     -679.636     541.199    -554.062
  H     -681.915     540.364    -553.709
  H     -682.051     542.573    -551.551
  H     -677.849     535.394    -553.955
  H     -683.701     541.023    -550.486
  H     -679.164     534.686    -553.070
  H     -684.257     541.711    -552.032
  P     -682.409     541.980    -555.736
  C     -684.670     540.681    -555.849
  O     -683.979     541.920    -556.045
  O     -681.963     540.445    -555.794
  O     -681.612     542.833    -556.680
  H     -681.511     540.245    -556.633
  H     -685.703     540.806    -556.097
  H     -684.583     540.382    -554.825
  H     -684.240     539.930    -556.478

 6  7  8  9  10  11  12  13  14  15  16  26  30  31  32  33  35 0
 6-311+G(2d,p)
 ****
 37  38 0
 6-311+G(2d,p)
 ****
 1  2  3  4  5  17  18  19  20  21  22  23  24  25 0
 3-21G
 ****
 27  28  29  34  36  39  40  41  42  43  44  45  46 0
 3-21G
 ****


