%nproc=1
%NoSave
%Mem=1900MB
#P OB98/GEN NMR

erre ene a

0 1
  C     -125.783    -204.982    -375.995
  O     -126.923    -205.687    -375.548
  H     -125.634    -204.113    -375.351
  H     -125.942    -204.636    -377.022
  H     -124.895    -205.618    -375.949
  P     -127.218    -207.102    -376.253
  C     -126.443    -208.091    -373.947
  O     -126.464    -208.199    -375.357
  C     -125.086    -208.520    -373.389
  O     -124.812    -209.877    -373.821
  C     -123.921    -207.637    -373.856
  O     -122.977    -207.534    -372.790
  C     -123.311    -208.441    -374.991
  O     -121.950    -208.087    -375.226
  C     -123.541    -209.876    -374.502
  N     -123.512    -210.851    -375.589
  C     -122.293    -211.501    -375.823
  O     -121.306    -211.232    -375.134
  N     -122.206    -212.404    -376.849
  C     -123.229    -212.593    -377.624
  N     -123.074    -213.484    -378.645
  C     -124.524    -211.903    -377.444
  C     -124.596    -211.062    -376.414
  O     -126.317    -207.005    -377.572
  O     -128.664    -207.377    -376.511
  H     -121.881    -207.110    -375.256
  H     -125.428    -206.655    -377.407
  H     -125.341    -212.089    -378.126
  H     -125.505    -210.516    -376.202
  H     -122.772    -210.162    -373.767
  H     -123.869    -208.264    -375.919
  H     -124.248    -206.641    -374.166
  H     -125.146    -208.539    -372.294
  H     -122.165    -213.921    -378.746
  H     -127.229    -208.713    -373.504
  H     -123.781    -213.671    -379.338
  H     -126.652    -207.049    -373.681
  P     -123.351    -206.681    -371.486
  C     -123.506    -208.991    -370.325
  O     -123.993    -207.653    -370.384
  O     -124.098    -205.414    -371.731
  O     -121.908    -206.361    -370.854
  H     -121.926    -205.437    -370.532
  H     -124.018    -209.523    -369.551
  H     -122.457    -208.980    -370.116
  H     -123.678    -209.475    -371.264

 6  7  8  9  10  11  12  13  14  15  16  26  30  31  32  33  35 0
 6-311+G(2d,p)
 ****
 37  38 0
 6-311+G(2d,p)
 ****
 1  2  3  4  5  17  18  19  20  21  22  23  24  25 0
 3-21G
 ****
 27  28  29  34  36  39  40  41  42  43  44  45  46 0
 3-21G
 ****


