%nproc=1
%NoSave
%Mem=1900MB
#P OB98/GEN NMR

erre ene a

0 1
  C      -80.733     -92.198     104.777
  O      -79.879     -92.695     105.787
  H      -81.228     -91.297     105.145
  H      -81.493     -92.943     104.530
  H      -80.158     -91.945     103.882
  P      -78.963     -93.956     105.413
  C      -76.795     -93.682     106.830
  O      -78.080     -94.274     106.716
  C      -76.931     -92.235     107.303
  O      -77.520     -92.235     108.632
  C      -75.589     -91.498     107.397
  O      -75.778     -90.134     107.012
  C      -75.255     -91.572     108.877
  O      -74.367     -90.554     109.316
  C      -76.651     -91.476     109.497
  N      -76.698     -91.993     110.862
  C      -77.421     -91.264     111.800
  O      -78.085     -90.258     111.547
  N      -77.362     -91.733     113.087
  C      -76.651     -92.814     113.519
  O      -76.619     -93.171     114.690
  C      -75.901     -93.539     112.484
  C      -75.956     -93.101     111.224
  O      -77.893     -93.345     104.390
  O      -79.683     -95.135     104.853
  H      -78.218     -93.419     103.472
  H      -74.325     -90.590     110.292
  H      -77.883     -91.216     113.780
  H      -75.317     -94.396     112.792
  H      -75.402     -93.604     110.440
  H      -77.004     -90.435     109.483
  H      -74.796     -92.542     109.107
  H      -74.811     -91.951     106.781
  H      -77.627     -91.707     106.641
  H      -76.304     -93.696     105.851
  H      -76.192     -94.259     107.539
  P      -75.004     -89.624     105.699
  C      -76.516     -87.497     105.537
  O      -75.209     -88.031     105.660
  O      -75.952     -90.176     104.539
  O      -73.589     -90.090     105.640
  H      -76.899     -90.139     104.760
  H      -76.465     -86.428     105.528
  H      -77.112     -87.818     106.365
  H      -76.958     -87.841     104.625

 6  7  8  9  10  11  12  13  14  15  16  27  31  32  33  34  35 0
 6-311+G(2d,p)
 ****
 36  37 0
 6-311+G(2d,p)
 ****
 1  2  3  4  5  17  18  19  20  21  22  23  24  25 0
 3-21G
 ****
 26  28  29  30  38  39  40  41  42  43  44  45 0
 3-21G
 ****


