%nproc=1
%NoSave
%Mem=1900MB
#P OB98/GEN NMR

erre ene a

0 1
  C     -345.681     497.304    -257.690
  O     -345.366     497.883    -258.942
  H     -344.974     497.678    -256.941
  H     -345.598     496.213    -257.724
  H     -346.695     497.584    -257.389
  P     -346.165     497.367    -260.233
  C     -347.740     499.387    -259.874
  O     -347.635     497.987    -260.109
  C     -348.676     500.024    -260.891
  O     -348.045     500.067    -262.193
  C     -349.969     499.240    -261.093
  O     -350.852     499.463    -260.006
  C     -350.431     499.779    -262.430
  O     -351.063     501.058    -262.298
  C     -349.085     499.908    -263.190
  N     -348.814     498.765    -264.057
  C     -349.685     498.591    -265.131
  O     -350.609     499.378    -265.322
  N     -349.495     497.520    -265.969
  C     -348.517     496.700    -265.750
  N     -348.375     495.648    -266.605
  C     -347.562     496.849    -264.630
  C     -347.775     497.895    -263.828
  O     -346.132     495.890    -260.505
  O     -345.514     498.209    -261.432
  H     -351.847     500.910    -261.730
  H     -344.751     497.732    -261.811
  H     -346.758     496.142    -264.489
  H     -347.121     498.076    -262.984
  H     -349.077     500.821    -263.807
  H     -351.134     499.106    -262.913
  H     -349.751     498.177    -261.203
  H     -348.876     501.055    -260.587
  H     -349.056     495.578    -267.356
  H     -346.732     499.807    -259.975
  H     -347.601     494.999    -266.590
  H     -348.097     499.590    -258.857
  P     -351.923     498.344    -259.593
  C     -350.069     496.985    -258.418
  O     -351.082     496.990    -259.421
  O     -353.125     498.250    -260.476
  O     -352.279     498.732    -258.074
  H     -352.866     499.529    -258.041
  H     -349.585     496.031    -258.405
  H     -350.512     497.174    -257.463
  H     -349.349     497.747    -258.634

 6  7  8  9  10  11  12  13  14  15  16  26  30  31  32  33  35 0
 6-311+G(2d,p)
 ****
 37  38 0
 6-311+G(2d,p)
 ****
 1  2  3  4  5  17  18  19  20  21  22  23  24  25 0
 3-21G
 ****
 27  28  29  34  36  39  40  41  42  43  44  45  46 0
 3-21G
 ****


