%nproc=1
%NoSave
%Mem=1900MB
#P OB98/GEN NMR

erre ene a

0 1
  C     -364.210    -781.152    -896.680
  O     -364.984    -779.975    -896.730
  P     -364.722    -778.937    -897.940
  C     -366.011    -776.930    -898.970
  O     -366.029    -778.010    -898.030
  C     -367.390    -776.300    -899.050
  O     -368.398    -777.276    -899.330
  C     -367.842    -775.622    -897.760
  O     -367.284    -774.314    -897.600
  C     -369.351    -775.498    -897.970
  O     -369.651    -774.387    -898.830
  C     -369.652    -776.837    -898.730
  N     -373.800    -779.179    -896.990
  C     -373.657    -778.301    -898.060
  N     -374.774    -777.929    -898.700
  N     -372.510    -777.805    -898.440
  C     -371.451    -778.236    -897.700
  C     -371.498    -779.126    -896.620
  C     -372.744    -779.661    -896.200
  O     -372.975    -780.393    -895.260
  N     -370.211    -779.345    -896.120
  C     -369.426    -778.578    -896.880
  N     -370.150    -777.891    -897.810
  O     -364.841    -779.871    -899.250
  O     -363.407    -778.226    -897.890
  H     -369.526    -773.590    -898.290
  H     -364.431    -779.424    -900.000
  H     -374.701    -779.519    -896.750
  H     -368.358    -778.527    -896.790
  H     -370.393    -776.697    -899.530
  H     -369.907    -775.369    -897.070
  H     -375.710    -778.251    -898.400
  H     -367.657    -776.240    -896.870
  H     -374.719    -777.233    -899.450
  H     -367.390    -775.542    -899.880
  H     -365.725    -777.306    -899.970
  H     -365.266    -776.199    -898.670
  P     -366.954    -773.850    -896.100
  C     -365.229    -772.142    -895.130
  O     -365.652    -772.861    -896.250
  O     -366.338    -775.182    -895.430
  O     -368.104    -773.317    -895.350
  H     -366.465    -775.153    -894.470
  H     -364.225    -771.735    -895.340
  H     -365.188    -772.777    -894.220
  H     -365.900    -771.287    -894.950
  H     -364.498    -781.732    -895.829
  H     -363.174    -780.895    -896.602
  H     -364.370    -781.722    -897.571

 3  4  5  6  7  8  9  10  11  12  23  26  30  31 0
 6-311+G(2d,p)
 ****
 33  35  36  37  38 0
 6-311+G(2d,p)
 ****
 1  2  13  14  15  16  17  18  19  20  21  22  24  25 0
 3-21G
 ****
 27  28  29  32  34  39  40  41  42  43  44  45  46  47  48  49 0
 3-21G
 ****


