%nproc=1
%NoSave
%Mem=1900MB
#P OB98/GEN NMR

erre ene a

0 1
  C      -41.777      29.677    -182.269
  O      -42.961      28.941    -182.490
  P      -43.613      27.980    -181.393
  C      -44.118      25.812    -182.735
  O      -43.273      26.459    -181.790
  C      -43.759      24.333    -182.946
  O      -42.493      24.240    -183.630
  C      -43.574      23.636    -181.595
  O      -44.695      23.146    -180.886
  C      -42.464      22.619    -181.823
  O      -42.965      21.303    -182.060
  C      -41.746      23.150    -183.067
  N      -36.863      21.818    -182.794
  C      -37.920      21.135    -183.364
  N      -37.667      19.861    -183.736
  N      -39.109      21.653    -183.529
  C      -39.230      22.901    -183.020
  C      -38.255      23.681    -182.446
  C      -36.934      23.114    -182.307
  O      -35.994      23.655    -181.730
  N      -38.760      24.868    -181.978
  C      -40.050      24.790    -182.231
  N      -40.390      23.599    -182.826
  O      -45.002      28.309    -180.950
  O      -42.635      28.227    -180.133
  H      -42.203      20.710    -182.193
  H      -43.178      28.165    -179.323
  H      -35.986      21.340    -182.620
  H      -40.780      25.550    -181.975
  H      -41.692      22.376    -183.841
  H      -41.816      22.548    -180.942
  H      -36.811      19.387    -183.493
  H      -43.138      24.380    -180.915
  H      -38.456      19.281    -183.999
  H      -44.487      23.841    -183.598
  H      -44.045      26.365    -183.674
  H      -45.157      25.883    -182.400
  P      -44.719      22.670    -179.360
  C      -45.254      20.250    -180.000
  O      -44.361      21.111    -179.312
  O      -46.270      22.692    -178.964
  O      -43.931      23.525    -178.421
  H      -46.363      22.761    -177.995
  H      -45.098      19.225    -179.655
  H      -45.051      20.299    -181.074
  H      -46.293      20.536    -179.814
  H      -41.541      30.244    -183.145
  H      -40.974      29.004    -182.052
  H      -41.919      30.341    -181.442

 3  4  5  6  7  8  9  10  11  12  23  26  30  31 0
 6-311+G(2d,p)
 ****
 33  35  36  37  38 0
 6-311+G(2d,p)
 ****
 1  2  13  14  15  16  17  18  19  20  21  22  24  25 0
 3-21G
 ****
 27  28  29  32  34  39  40  41  42  43  44  45  46  47  48  49 0
 3-21G
 ****


