%nproc=1
%NoSave
%Mem=1900MB
#P OB98/GEN NMR

erre ene a

0 1
  C      202.453     799.046     165.934
  O      203.130     798.019     166.624
  P      203.501     798.196     168.171
  C      205.387     796.536     167.580
  O      204.496     797.000     168.590
  C      205.859     795.112     167.898
  O      206.719     795.099     169.066
  C      204.734     794.152     168.216
  O      203.995     793.786     167.064
  C      205.509     793.016     168.882
  O      206.117     792.164     167.889
  C      206.597     793.790     169.654
  N      206.310     793.860     171.081
  C      207.371     794.266     171.896
  O      208.487     794.458     171.426
  N      207.136     794.439     173.240
  C      205.980     794.114     173.736
  N      205.772     794.365     175.066
  C      204.888     793.528     172.931
  C      205.107     793.454     171.616
  O      202.345     798.398     169.091
  O      204.476     799.479     168.190
  H      204.164     800.099     168.870
  H      206.459     792.754     167.174
  H      203.951     793.217     173.405
  H      204.359     793.062     170.938
  H      207.573     793.318     169.509
  H      204.869     792.381     169.500
  H      204.057     794.602     168.958
  H      206.443     794.754     167.040
  H      206.540     794.764     175.584
  H      206.254     797.211     167.538
  H      204.849     794.455     175.464
  H      204.877     796.560     166.609
  P      202.468     794.298     166.979
  C      201.472     792.096     166.048
  O      201.751     793.469     165.825
  O      202.619     795.776     166.377
  O      201.740     794.318     168.291
  H      201.944     796.370     166.770
  H      200.688     791.789     165.344
  H      201.111     791.929     167.068
  H      202.368     791.509     165.867
  H      202.293     798.748     164.919
  H      203.042     799.939     165.956
  H      201.510     799.230     166.404

 3  4  5  6  7  8  9  10  11  12  13  24  27  28  29  30  32 0
 6-311+G(2d,p)
 ****
 34  35 0
 6-311+G(2d,p)
 ****
 1  2  14  15  16  17  18  19  20  21  22  23  25  26 0
 3-21G
 ****
 31  33  36  37  38  39  40  41  42  43  44  45  46 0
 3-21G
 ****


