%nproc=1
%NoSave
%Mem=1900MB
#P OB98/GEN NMR

erre ene a

0 1
  C      458.402     404.090    -311.216
  O      457.120     403.841    -310.637
  P      456.881     402.444    -309.890
  C      457.159     403.488    -307.523
  O      456.328     402.752    -308.417
  C      456.327     404.509    -306.743
  O      455.965     405.649    -307.561
  C      455.008     403.949    -306.213
  O      455.195     403.245    -304.988
  C      454.226     405.224    -305.961
  O      454.638     405.817    -304.712
  C      454.656     406.105    -307.138
  N      451.732     408.846    -310.235
  C      452.550     409.248    -309.193
  N      452.614     410.577    -308.956
  N      453.259     408.429    -308.461
  C      453.113     407.125    -308.834
  C      452.332     406.606    -309.844
  C      451.543     407.530    -310.626
  O      450.785     407.226    -311.553
  N      452.446     405.241    -309.907
  C      453.306     404.935    -308.948
  N      453.735     406.042    -308.263
  O      458.371     401.933    -309.617
  O      456.090     401.451    -310.684
  H      454.481     405.148    -304.020
  H      458.388     400.955    -309.580
  H      451.206     409.522    -310.759
  H      453.665     403.931    -308.734
  H      454.754     407.167    -306.859
  H      453.152     405.047    -305.881
  H      452.137     411.272    -309.507
  H      454.499     403.335    -306.964
  H      453.236     410.895    -308.219
  H      456.931     404.872    -305.896
  H      457.950     404.000    -308.072
  H      457.667     402.787    -306.852
  P      454.418     401.850    -304.794
  C      456.474     400.276    -304.642
  O      455.413     400.903    -303.961
  O      454.439     401.235    -306.276
  O      453.028     401.974    -304.268
  H      453.645     400.682    -306.418
  H      457.144     399.814    -303.897
  H      457.064     401.008    -305.217
  H      456.096     399.497    -305.308
  H      458.405     405.057    -311.674
  H      458.611     403.344    -311.955
  H      459.151     404.055    -310.453

 3  4  5  6  7  8  9  10  11  12  23  26  30  31 0
 6-311+G(2d,p)
 ****
 33  35  36  37  38 0
 6-311+G(2d,p)
 ****
 1  2  13  14  15  16  17  18  19  20  21  22  24  25 0
 3-21G
 ****
 27  28  29  32  34  39  40  41  42  43  44  45  46  47  48  49 0
 3-21G
 ****


