%nproc=1
%NoSave
%Mem=1900MB
#P OB98/GEN NMR

erre ene a

0 1
  C     -384.760    -358.831     -44.487
  O     -385.293    -358.870     -43.178
  H     -385.535    -359.146     -45.189
  H     -383.913    -359.516     -44.568
  H     -384.443    -357.817     -44.739
  P     -384.325    -358.419     -41.980
  C     -383.218    -360.764     -41.728
  O     -383.050    -359.398     -42.085
  C     -382.141    -361.625     -42.394
  O     -380.834    -361.154     -41.986
  C     -382.238    -363.108     -42.025
  O     -382.034    -363.900     -43.195
  C     -381.114    -363.318     -41.028
  O     -380.651    -364.666     -41.007
  C     -380.085    -362.274     -41.485
  N     -379.199    -361.876     -40.393
  C     -377.845    -362.215     -40.522
  O     -377.456    -362.835     -41.517
  N     -376.982    -361.896     -39.508
  C     -377.436    -361.342     -38.429
  N     -376.534    -361.072     -37.448
  C     -378.859    -361.009     -38.225
  C     -379.675    -361.295     -39.242
  O     -385.095    -358.943     -40.682
  O     -383.991    -356.964     -41.944
  H     -379.728    -364.668     -40.668
  H     -384.721    -358.551     -39.855
  H     -379.193    -360.564     -37.301
  H     -380.739    -361.088     -39.179
  H     -379.475    -362.671     -42.308
  H     -381.472    -363.072     -40.020
  H     -383.200    -363.373     -41.584
  H     -382.203    -361.481     -43.477
  H     -375.567    -361.323     -37.615
  H     -384.210    -361.095     -42.058
  H     -376.777    -360.670     -36.553
  H     -383.149    -360.862     -40.641
  P     -383.277    -364.807     -43.657
  C     -382.923    -366.936     -42.225
  O     -383.676    -365.751     -42.419
  O     -382.630    -365.814     -44.721
  O     -384.408    -364.018     -44.237
  H     -382.807    -365.513     -45.630
  H     -383.298    -367.461     -41.371
  H     -381.895    -366.684     -42.066
  H     -383.008    -367.558     -43.091

 6  7  8  9  10  11  12  13  14  15  16  26  30  31  32  33  35 0
 6-311+G(2d,p)
 ****
 37  38 0
 6-311+G(2d,p)
 ****
 1  2  3  4  5  17  18  19  20  21  22  23  24  25 0
 3-21G
 ****
 27  28  29  34  36  39  40  41  42  43  44  45  46 0
 3-21G
 ****


