%nproc=1
%NoSave
%Mem=1900MB
#P OB98/GEN NMR

erre ene a

0 1
  C     -140.708    -218.038     182.103
  O     -141.153    -217.043     181.199
  H     -141.583    -218.515     182.555
  H     -140.104    -217.586     182.894
  H     -140.127    -218.797     181.573
  P     -140.012    -216.239     180.406
  C     -140.262    -214.524     182.330
  O     -140.161    -214.729     180.927
  C     -140.256    -213.033     182.653
  O     -140.383    -212.822     184.072
  C     -138.985    -212.304     182.240
  O     -139.011    -211.988     180.857
  C     -139.077    -211.055     183.105
  O     -139.990    -210.114     182.505
  C     -139.674    -211.600     184.417
  N     -138.366    -210.763     189.310
  C     -139.298    -210.189     188.517
  N     -139.559    -210.431     187.216
  C     -138.742    -211.380     186.734
  C     -137.745    -212.056     187.420
  C     -137.574    -211.723     188.775
  N     -136.629    -212.320     189.582
  N     -137.108    -212.959     186.594
  C     -137.745    -212.868     185.446
  N     -138.719    -211.900     185.466
  O     -139.992    -216.432     178.930
  O     -138.698    -216.737     181.175
  H     -140.827    -210.587     182.336
  H     -138.871    -216.821     182.129
  H     -139.916    -209.433     188.994
  H     -137.552    -213.488     184.577
  H     -140.405    -210.908     184.848
  H     -138.116    -210.547     183.205
  H     -138.089    -212.868     182.521
  H     -141.138    -212.584     182.177
  H     -139.431    -215.023     182.847
  H     -136.459    -211.905     190.484
  H     -135.961    -212.941     189.150
  H     -141.199    -214.980     182.663
  P     -137.831    -212.475     179.885
  C     -136.520    -210.275     180.098
  O     -137.212    -211.154     179.218
  O     -138.214    -213.539     178.913
  O     -136.671    -212.961     180.872
  H     -136.228    -213.753     180.511
  H     -136.153    -209.435     179.547
  H     -135.699    -210.793     180.547
  H     -137.188    -209.936     180.862

 6  7  8  9  10  11  12  13  14  15  25  28  32  33  34  35 0
 6-311+G(2d,p)
 ****
 36  39  40 0
 6-311+G(2d,p)
 ****
 1  2  3  4  5  16  17  18  19  20  21  22  23  24 0
 3-21G
 ****
 26  27  29  30  31  37  38  41  42  43  44  45  46  47 0
 3-21G
 ****
 48 0
 3-21G
 ****


