%nproc=1
%NoSave
%Mem=1900MB
#P OB98/GEN NMR

erre ene a

0 1
  C      246.263     -47.487      48.929
  O      246.603     -48.446      47.955
  H      245.324     -47.009      48.637
  H      247.044     -46.723      48.977
  H      246.134     -47.942      49.914
  P      247.652     -49.592      48.340
  C      246.410     -51.460      47.058
  O      247.613     -50.713      47.187
  C      245.978     -51.596      45.601
  O      245.386     -50.358      45.149
  C      247.155     -51.886      44.664
  O      247.474     -53.261      44.533
  C      246.659     -51.308      43.340
  O      245.907     -52.275      42.594
  C      245.758     -50.151      43.774
  N      245.721     -45.590      41.452
  C      244.958     -46.710      41.176
  N      244.113     -46.610      40.128
  N      245.044     -47.825      41.861
  C      246.001     -47.806      42.815
  C      246.831     -46.762      43.165
  C      246.682     -45.513      42.454
  O      247.317     -44.490      42.672
  N      247.712     -47.130      44.159
  C      247.471     -48.416      44.339
  N      246.386     -48.852      43.606
  O      246.952     -50.345      49.571
  O      249.022     -49.114      48.721
  H      245.224     -52.651      43.189
  H      247.634     -50.690      50.177
  H      245.593     -44.754      40.915
  H      248.013     -49.065      45.021
  H      244.824     -50.127      43.196
  H      247.500     -51.006      42.706
  H      244.071     -45.808      39.516
  H      248.042     -51.325      44.972
  H      243.680     -47.468      39.776
  H      245.203     -52.366      45.518
  H      245.650     -50.919      47.629
  H      246.524     -52.448      47.514
  P      248.995     -53.759      44.506
  C      248.775     -55.670      46.294
  O      249.032     -55.285      44.957
  O      249.640     -52.985      45.752
  O      249.735     -53.496      43.237
  H      250.122     -52.191      45.449
  H      248.851     -56.734      46.380
  H      247.790     -55.359      46.572
  H      249.490     -55.208      46.942

 6  7  8  9  10  11  12  13  14  15  26  29  33  34 0
 6-311+G(2d,p)
 ****
 36  38  39  40  41 0
 6-311+G(2d,p)
 ****
 1  2  3  4  5  16  17  18  19  20  21  22  23  24  25 0
 3-21G
 ****
 27  28  30  31  32  35  37  42  43  44  45  46  47 0
 3-21G
 ****
 48  49 0
 3-21G
 ****


