%nproc=1
%NoSave
%Mem=1900MB
#P OB98/GEN NMR

erre ene a

0 1
  C       -5.700      45.635     416.172
  O       -6.991      46.035     416.590
  H       -5.389      44.777     416.772
  H       -4.984      46.449     416.320
  H       -5.722      45.343     415.119
  P       -7.615      47.324     415.868
  C       -7.081      48.916     417.825
  O       -6.789      48.563     416.478
  C       -5.986      49.822     418.388
  O       -6.439      50.356     419.660
  C       -4.659      49.097     418.638
  O       -3.578      49.987     418.353
  C       -4.694      48.815     420.131
  O       -3.390      48.627     420.678
  C       -5.436      50.047     420.645
  N       -4.642      50.300     425.671
  C       -3.937      50.770     424.618
  N       -4.232      50.677     423.305
  C       -5.428      50.072     423.130
  C       -6.256      49.541     424.101
  C       -5.818      49.667     425.434
  N       -6.510      49.163     426.510
  N       -7.368      48.963     423.522
  C       -7.215      49.147     422.222
  N       -6.043      49.794     421.938
  O       -9.099      47.451     415.942
  O       -7.008      47.204     414.391
  H       -2.824      49.374     420.396
  H       -6.053      47.002     414.412
  H       -3.006      51.276     424.862
  H       -7.908      48.816     421.457
  H       -4.777      50.922     420.761
  H       -5.271      47.905     420.324
  H       -4.552      48.184     418.051
  H       -5.854      50.678     417.716
  H       -7.163      48.014     418.441
  H       -6.121      49.298     427.429
  H       -7.390      48.692     426.355
  H       -8.050      49.434     417.835
  P       -2.393      49.493     417.388
  C       -0.367      50.188     418.827
  O       -1.123      49.108     418.296
  O       -2.092      50.378     416.227
  O       -2.911      48.055     416.899
  H       -2.717      47.954     415.946
  H        0.445      49.803     419.408
  H       -0.995      50.792     419.448
  H        0.019      50.782     418.025

 6  7  8  9  10  11  12  13  14  15  25  28  32  33  34  35 0
 6-311+G(2d,p)
 ****
 36  39  40 0
 6-311+G(2d,p)
 ****
 1  2  3  4  5  16  17  18  19  20  21  22  23  24 0
 3-21G
 ****
 26  27  29  30  31  37  38  41  42  43  44  45  46  47 0
 3-21G
 ****
 48 0
 3-21G
 ****


