%nproc=1
%NoSave
%Mem=1900MB
#P OB98/GEN NMR

erre ene a

0 1
  C      977.908    1011.226    -886.720
  O      977.377    1011.797    -887.900
  H      978.748    1011.818    -886.350
  H      977.125    1011.210    -885.960
  H      978.237    1010.200    -886.910
  P      978.365    1011.900    -889.160
  C      976.418    1012.697    -890.690
  O      977.703    1012.985    -890.140
  C      975.989    1013.832    -891.600
  O      977.026    1014.115    -892.570
  C      974.728    1013.542    -892.420
  O      973.546    1013.759    -891.670
  C      974.876    1014.579    -893.530
  O      974.496    1015.874    -893.030
  C      976.378    1014.526    -893.810
  N      977.118    1014.001    -898.850
  C      976.727    1015.053    -898.100
  N      976.548    1015.116    -896.760
  C      976.819    1013.927    -896.190
  C      977.218    1012.758    -896.830
  C      977.372    1012.829    -898.220
  N      977.743    1011.755    -899.000
  N      977.358    1011.728    -895.920
  C      977.086    1012.282    -894.750
  N      976.748    1013.598    -894.860
  O      978.143    1010.521    -889.930
  O      979.799    1012.148    -888.840
  H      973.552    1015.838    -892.810
  H      978.901    1010.334    -890.520
  H      976.533    1015.974    -898.640
  H      977.125    1011.762    -893.800
  H      976.784    1015.508    -894.080
  H      974.239    1014.366    -894.390
  H      974.761    1012.533    -892.860
  H      975.854    1014.740    -890.990
  H      975.688    1012.605    -889.860
  H      977.652    1011.854    -900.000
  H      977.790    1010.841    -898.560
  H      976.449    1011.758    -891.230
  P      972.301    1012.787    -891.970
  C      971.748    1012.843    -889.430
  O      971.281    1013.008    -890.750
  O      972.894    1011.330    -891.700
  O      971.719    1012.924    -893.350
  H      972.417    1010.654    -892.210
  H      970.948    1013.025    -888.743
  H      972.543    1013.535    -889.244
  H      972.108    1011.844    -889.301

 6  7  8  9  10  11  12  13  14  15  25  28  32  33  34  35 0
 6-311+G(2d,p)
 ****
 36  39  40 0
 6-311+G(2d,p)
 ****
 1  2  3  4  5  16  17  18  19  20  21  22  23  24 0
 3-21G
 ****
 26  27  29  30  31  37  38  41  42  43  44  45  46  47 0
 3-21G
 ****
 48 0
 3-21G
 ****


