%nproc=1
%NoSave
%Mem=1900MB
#P OB98/GEN NMR

erre ene a

0 1
  C     -122.209      80.614      38.170
  O     -123.539      80.883      37.784
  H     -121.834      79.779      37.574
  H     -122.182      80.334      39.227
  H     -121.565      81.481      38.003
  P     -124.207      82.266      38.230
  C     -126.142      81.334      39.661
  O     -125.771      81.986      38.457
  C     -127.089      80.160      39.385
  O     -128.459      80.627      39.409
  C     -126.838      79.589      37.987
  O     -127.159      78.204      37.907
  C     -127.810      80.377      37.122
  O     -128.124      79.721      35.897
  C     -128.993      80.527      38.075
  N     -132.713      82.508      35.214
  C     -132.061      81.298      35.084
  N     -132.435      80.524      34.042
  N     -131.118      80.893      35.894
  C     -130.796      81.801      36.845
  C     -131.352      83.042      37.059
  C     -132.422      83.462      36.181
  O     -133.023      84.531      36.238
  N     -130.750      83.687      38.111
  C     -129.829      82.843      38.528
  N     -129.826      81.678      37.800
  O     -124.203      83.142      36.888
  O     -123.524      82.984      39.354
  H     -127.325      79.745      35.339
  H     -124.214      84.091      37.102
  H     -133.443      82.765      34.574
  H     -129.145      83.022      39.349
  H     -129.636      79.638      38.036
  H     -127.344      81.333      36.867
  H     -133.024      80.867      33.299
  H     -125.806      79.733      37.664
  H     -131.781      79.788      33.763
  H     -126.996      79.405      40.173
  H     -126.642      82.077      40.290
  H     -125.254      80.994      40.197
  P     -125.943      77.160      37.904
  C     -126.980      75.696      35.991
  O     -126.491      75.773      37.316
  O     -125.701      76.862      39.455
  O     -124.715      77.672      37.231
  H     -124.895      77.315      39.764
  H     -127.298      74.695      35.786
  H     -126.204      75.971      35.308
  H     -127.808      76.364      35.877

 6  7  8  9  10  11  12  13  14  15  26  29  33  34 0
 6-311+G(2d,p)
 ****
 36  38  39  40  41 0
 6-311+G(2d,p)
 ****
 1  2  3  4  5  16  17  18  19  20  21  22  23  24  25 0
 3-21G
 ****
 27  28  30  31  32  35  37  42  43  44  45  46  47 0
 3-21G
 ****
 48  49 0
 3-21G
 ****


