%nproc=1
%NoSave
%Mem=1900MB
#P OB98/GEN NMR

erre ene a

0 1
  C      178.120    -336.330     202.298
  O      177.509    -335.089     202.014
  H      177.907    -337.021     201.478
  H      177.722    -336.754     203.225
  H      179.204    -336.210     202.382
  P      177.578    -333.931     203.127
  C      175.075    -334.471     203.518
  O      176.048    -333.461     203.301
  C      173.669    -333.893     203.333
  O      172.663    -334.918     203.497
  C      173.282    -332.805     204.328
  O      173.916    -331.558     204.075
  C      171.777    -332.755     204.094
  O      171.505    -332.056     202.868
  C      171.446    -334.265     203.959
  N      170.990    -334.862     205.216
  C      169.661    -334.605     205.583
  O      168.938    -333.910     204.868
  N      169.193    -335.110     206.770
  C      169.983    -335.800     207.539
  N      169.485    -336.238     208.727
  C      171.385    -336.109     207.182
  C      171.818    -335.608     206.027
  O      178.561    -332.831     202.881
  O      177.830    -334.716     204.502
  H      171.789    -331.133     202.994
  H      177.892    -334.041     205.222
  H      172.007    -336.676     207.860
  H      172.844    -335.781     205.701
  H      170.683    -334.426     203.192
  H      171.235    -332.240     204.894
  H      173.467    -333.135     205.356
  H      173.595    -333.540     202.291
  H      168.536    -335.971     208.954
  H      175.204    -334.864     204.532
  H      170.095    -336.527     209.484
  H      175.207    -335.288     202.799
  P      174.615    -330.806     205.306
  C      173.204    -328.627     205.038
  O      174.488    -329.232     205.023
  O      176.167    -331.111     205.078
  O      174.145    -331.215     206.672
  H      176.451    -331.899     205.584
  H      173.300    -327.581     204.832
  H      172.758    -328.761     206.001
  H      172.586    -329.082     204.292

 6  7  8  9  10  11  12  13  14  15  16  26  30  31  32  33  35 0
 6-311+G(2d,p)
 ****
 37  38 0
 6-311+G(2d,p)
 ****
 1  2  3  4  5  17  18  19  20  21  22  23  24  25 0
 3-21G
 ****
 27  28  29  34  36  39  40  41  42  43  44  45  46 0
 3-21G
 ****


