%nproc=1
%NoSave
%Mem=1900MB
#P OB98/GEN NMR

erre ene a

0 1
  C      500.898     344.340    -132.986
  O      501.962     344.170    -133.900
  H      500.249     343.462    -132.994
  H      501.312     344.465    -131.983
  H      500.319     345.233    -133.242
  P      501.568     343.980    -135.444
  C      503.393     345.740    -136.019
  O      502.853     344.452    -136.284
  C      504.734     345.885    -136.726
  O      504.596     345.575    -138.130
  C      505.321     347.292    -136.672
  O      505.983     347.550    -135.446
  C      506.311     347.227    -137.824
  O      507.483     346.500    -137.415
  C      505.522     346.424    -138.865
  N      505.756     349.133    -143.200
  C      506.689     348.434    -142.522
  N      506.548     347.744    -141.374
  C      505.285     347.821    -140.925
  C      504.228     348.509    -141.501
  C      504.498     349.184    -142.702
  N      503.551     349.916    -143.386
  N      503.090     348.388    -140.726
  C      503.447     347.614    -139.720
  N      504.768     347.256    -139.787
  O      500.511     345.152    -135.710
  O      501.035     342.638    -135.818
  H      508.153     346.633    -138.110
  H      499.970     344.946    -136.498
  H      507.683     348.426    -142.962
  H      502.793     347.292    -138.924
  H      506.161     345.769    -139.467
  H      506.641     348.208    -138.162
  H      504.564     348.057    -136.889
  H      505.429     345.157    -136.290
  H      503.536     345.855    -134.939
  H      503.890     350.509    -144.127
  H      502.659     350.078    -142.944
  H      502.691     346.500    -136.370
  P      506.120     349.082    -134.988
  C      505.802     348.350    -132.516
  O      506.606     349.044    -133.465
  O      504.599     349.572    -134.891
  O      506.931     349.937    -135.911
  H      504.535     350.536    -135.029
  H      506.256     348.414    -131.549
  H      505.718     347.323    -132.803
  H      504.828     348.792    -132.483

 6  7  8  9  10  11  12  13  14  15  25  28  32  33  34  35 0
 6-311+G(2d,p)
 ****
 36  39  40 0
 6-311+G(2d,p)
 ****
 1  2  3  4  5  16  17  18  19  20  21  22  23  24 0
 3-21G
 ****
 26  27  29  30  31  37  38  41  42  43  44  45  46  47 0
 3-21G
 ****
 48 0
 3-21G
 ****


