%nproc=1
%NoSave
%Mem=1900MB
#P OB98/GEN NMR

erre ene a

0 1
  C      396.627     142.641     284.211
  O      395.744     141.804     284.966
  P      394.543     140.979     284.293
  C      393.059     143.085     284.429
  O      393.151     141.683     284.660
  C      391.600     143.551     284.343
  O      390.978     143.035     283.151
  C      390.716     143.093     285.493
  O      390.964     143.849     286.663
  C      389.328     143.281     284.886
  O      388.899     144.651     284.997
  C      389.566     142.899     283.413
  N      389.095     141.555     283.101
  C      387.716     141.342     283.205
  O      386.967     142.241     283.593
  N      387.218     140.101     282.878
  C      388.035     139.141     282.561
  N      387.484     137.940     282.248
  C      389.500     139.301     282.535
  C      389.953     140.524     282.810
  O      394.583     139.514     284.579
  O      394.691     141.241     282.717
  H      387.988     144.685     284.648
  H      394.366     140.457     282.233
  H      390.144     138.473     282.293
  H      391.019     140.733     282.803
  H      389.061     143.609     282.747
  H      388.566     142.670     285.376
  H      390.882     142.025     285.686
  H      391.604     144.648     284.273
  H      386.476     137.863     282.272
  H      393.568     143.312     283.486
  H      388.030     137.129     281.985
  H      393.575     143.609     285.242
  P      392.198     143.473     287.606
  C      390.852     141.491     288.532
  O      391.624     142.635     288.848
  O      393.107     144.601     287.969
  O      392.987     142.355     286.766
  H      393.941     142.419     286.973
  H      390.865     140.811     289.388
  H      391.252     140.969     287.658
  H      389.820     141.797     288.336
  H      397.344     143.087     284.868
  H      396.062     143.409     283.726
  H      397.134     142.052     283.475

 3  4  5  6  7  8  9  10  11  12  13  23  27  28  29  30  32 0
 6-311+G(2d,p)
 ****
 34  35 0
 6-311+G(2d,p)
 ****
 1  2  14  15  16  17  18  19  20  21  22  24  25  26 0
 3-21G
 ****
 31  33  36  37  38  39  40  41  42  43  44  45  46 0
 3-21G
 ****


