%nproc=1
%NoSave
%Mem=1900MB
#P OB98/GEN NMR

erre ene a

0 1
  C       37.730     324.072     160.618
  O       36.376     323.679     160.519
  H       37.872     325.056     160.164
  H       38.005     324.131     161.675
  H       38.374     323.337     160.125
  P       35.762     323.567     159.041
  C       33.636     324.865     159.795
  O       34.172     323.673     159.238
  C       32.121     324.733     159.908
  O       31.539     324.563     158.596
  C       31.668     323.527     160.722
  O       31.695     323.770     162.118
  C       30.245     323.363     160.219
  O       29.397     324.354     160.825
  C       30.414     323.649     158.718
  N       28.315     319.972     155.840
  C       27.785     321.057     156.445
  N       28.414     321.999     157.176
  C       29.731     321.746     157.246
  C       30.415     320.685     156.674
  C       29.648     319.762     155.945
  N       30.180     318.636     155.353
  N       31.759     320.750     156.985
  C       31.883     321.843     157.713
  N       30.680     322.460     157.925
  O       35.975     322.028     158.655
  O       36.323     324.508     158.028
  H       29.379     324.167     161.782
  H       35.842     321.897     157.696
  H       26.711     321.181     156.330
  H       32.814     322.220     158.117
  H       29.537     324.141     158.282
  H       29.821     322.385     160.461
  H       32.244     322.629     160.465
  H       31.724     325.664     160.329
  H       33.885     325.709     159.141
  H       29.530     317.962     154.981
  H       31.140     318.394     155.548
  H       34.074     325.034     160.784
  P       32.355     322.643     163.056
  C       30.374     322.017     164.614
  O       31.596     322.727     164.467
  O       33.801     323.246     163.376
  O       32.430     321.286     162.436
  H       34.459     322.534     163.482
  H       29.990     322.168     165.601
  H       30.547     320.973     164.455
  H       29.665     322.375     163.897

 6  7  8  9  10  11  12  13  14  15  25  28  32  33  34  35 0
 6-311+G(2d,p)
 ****
 36  39  40 0
 6-311+G(2d,p)
 ****
 1  2  3  4  5  16  17  18  19  20  21  22  23  24 0
 3-21G
 ****
 26  27  29  30  31  37  38  41  42  43  44  45  46  47 0
 3-21G
 ****
 48 0
 3-21G
 ****


