%nproc=1
%NoSave
%Mem=1900MB
#P OB98/GEN NMR

erre ene a

0 1
  C       30.669      41.700     139.611
  O       30.481      42.629     140.661
  H       30.406      42.185     138.667
  H       30.024      40.828     139.749
  H       31.715      41.387     139.562
  P       30.760      42.147     142.164
  C       28.374      41.782     143.087
  O       29.545      41.175     142.554
  C       27.245      40.760     143.191
  O       26.870      40.290     141.882
  C       27.598      39.517     144.010
  O       27.460      39.775     145.396
  C       26.555      38.541     143.492
  O       25.277      38.835     144.091
  C       26.519      38.883     141.990
  N       27.154      34.620     139.308
  C       26.114      34.999     140.135
  N       25.117      34.103     140.292
  N       26.063      36.148     140.759
  C       27.162      36.913     140.564
  C       28.262      36.639     139.784
  C       28.276      35.393     139.046
  O       29.168      35.029     138.282
  N       29.222      37.612     139.906
  C       28.678      38.501     140.718
  N       27.428      38.119     141.155
  O       31.014      43.233     143.166
  O       32.002      41.146     142.034
  H       24.617      38.267     143.652
  H       32.847      41.616     142.157
  H       27.143      33.719     138.860
  H       29.138      39.435     141.017
  H       25.516      38.761     141.563
  H       26.790      37.502     143.729
  H       25.169      33.152     139.962
  H       28.594      39.139     143.756
  H       24.373      34.342     140.940
  H       26.369      41.271     143.613
  H       28.090      42.598     142.414
  H       28.581      42.203     144.078
  P       28.308      38.958     146.491
  C       26.253      37.443     146.903
  O       27.627      37.509     146.561
  O       28.455      39.642     147.806
  O       29.693      38.640     145.760
  H       30.349      39.377     145.835
  H       25.936      36.421     146.911
  H       25.680      37.988     146.183
  H       26.106      37.870     147.873

 6  7  8  9  10  11  12  13  14  15  26  29  33  34 0
 6-311+G(2d,p)
 ****
 36  38  39  40  41 0
 6-311+G(2d,p)
 ****
 1  2  3  4  5  16  17  18  19  20  21  22  23  24  25 0
 3-21G
 ****
 27  28  30  31  32  35  37  42  43  44  45  46  47 0
 3-21G
 ****
 48  49 0
 3-21G
 ****


