%nproc=1
%NoSave
%Mem=1900MB
#P OB98/GEN NMR

erre ene a

0 1
  C      -95.495    -109.411     -39.839
  O      -94.807    -110.199     -38.887
  H      -94.809    -109.171     -40.656
  H      -95.840    -108.476     -39.388
  H      -96.346    -109.964     -40.247
  P      -95.573    -110.618     -37.544
  C      -94.411    -108.730     -36.209
  O      -95.645    -109.301     -36.634
  C      -94.582    -107.240     -35.912
  O      -94.833    -106.513     -37.131
  C      -95.750    -106.920     -34.987
  O      -95.434    -107.250     -33.649
  C      -95.929    -105.437     -35.269
  O      -94.943    -104.657     -34.573
  C      -95.682    -105.388     -36.798
  N      -96.911    -105.414     -37.587
  C      -96.888    -104.686     -38.784
  O      -95.878    -104.062     -39.111
  N      -98.020    -104.677     -39.563
  C      -99.060    -105.363     -39.209
  N     -100.146    -105.314     -40.028
  C      -99.113    -106.168     -37.973
  C      -98.020    -106.141     -37.213
  O      -95.052    -111.832     -36.836
  O      -97.092    -110.817     -38.013
  H      -95.099    -104.811     -33.619
  H      -97.264    -111.754     -38.228
  H      -99.999    -106.733     -37.722
  H      -97.976    -106.707     -36.287
  H      -95.124    -104.481     -37.068
  H      -96.907    -105.069     -34.955
  H      -96.654    -107.446     -35.319
  H      -93.634    -106.870     -35.496
  H     -100.056    -104.763     -40.875
  H      -93.692    -108.872     -37.024
  H     -100.944    -105.928     -39.938
  H      -94.031    -109.249     -35.322
  P      -96.567    -107.690     -32.602
  C      -96.581    -105.361     -31.513
  O      -97.342    -106.340     -32.205
  O      -96.083    -108.500     -31.448
  O      -97.645    -108.452     -33.510
  H      -97.326    -109.364     -33.728
  H      -97.198    -104.512     -31.303
  H      -95.753    -105.059     -32.119
  H      -96.219    -105.774     -30.595

 6  7  8  9  10  11  12  13  14  15  16  26  30  31  32  33  35 0
 6-311+G(2d,p)
 ****
 37  38 0
 6-311+G(2d,p)
 ****
 1  2  3  4  5  17  18  19  20  21  22  23  24  25 0
 3-21G
 ****
 27  28  29  34  36  39  40  41  42  43  44  45  46 0
 3-21G
 ****


