%nproc=1
%NoSave
%Mem=1900MB
#P OB98/GEN NMR

erre ene a

0 1
  C      435.028     240.404    1292.955
  O      434.581     240.986    1294.155
  H      435.974     240.891    1292.671
  H      434.312     240.560    1292.152
  H      435.214     239.334    1293.095
  P      433.147     240.540    1294.730
  C      434.057     239.270    1296.804
  O      433.384     239.171    1295.551
  C      434.981     238.073    1297.011
  O      435.956     238.022    1295.921
  C      435.813     238.139    1298.327
  O      436.042     236.800    1298.752
  C      437.099     238.802    1297.836
  O      438.120     238.672    1298.796
  C      437.270     238.087    1296.493
  N      438.213     238.773    1295.624
  C      439.544     238.369    1295.731
  O      439.886     237.504    1296.524
  N      440.494     238.987    1294.941
  C      440.131     239.968    1294.168
  N      441.128     240.545    1293.416
  C      438.748     240.463    1294.059
  C      437.827     239.825    1294.803
  O      432.033     240.479    1293.719
  O      432.828     241.603    1295.879
  H      437.868     239.160    1299.631
  H      432.152     242.235    1295.564
  H      438.513     241.300    1293.410
  H      436.792     240.113    1294.802
  H      437.611     237.043    1296.639
  H      436.932     239.863    1297.683
  H      435.296     238.712    1299.117
  H      434.396     237.132    1296.971
  H      442.045     240.210    1293.534
  H      433.292     239.287    1297.587
  H      440.962     241.332    1292.794
  H      434.643     240.208    1296.855
  P      434.987     235.951    1299.617
  C      434.401     234.277    1297.711
  O      433.895     235.274    1298.616
  O      434.373     236.711    1300.756
  O      435.801     234.681    1300.159
  H      435.425     234.405    1301.030
  H      433.600     233.905    1297.107
  H      434.830     233.472    1298.271
  H      435.149     234.713    1297.083

 6  7  8  9  10  11  12  13  14  15  16  26  30  31  32  33  35 0
 6-311+G(2d,p)
 ****
 37  38 0
 6-311+G(2d,p)
 ****
 1  2  3  4  5  17  18  19  20  21  22  23  24  25 0
 3-21G
 ****
 27  28  29  34  36  39  40  41  42  43  44  45  46 0
 3-21G
 ****


