%nproc=1
%NoSave
%Mem=1900MB
#P OB98/GEN NMR

erre ene a

0 1
  C      264.467     -21.010    -350.268
  O      263.608     -20.607    -349.196
  P      264.257     -20.058    -347.837
  C      262.325     -18.489    -347.190
  O      263.079     -19.635    -346.832
  C      261.270     -18.170    -346.116
  O      260.114     -19.045    -346.261
  C      261.809     -18.369    -344.689
  O      261.206     -17.428    -343.790
  C      261.299     -19.753    -344.323
  O      261.266     -19.946    -342.908
  C      259.927     -19.736    -345.008
  N      256.922     -23.441    -343.126
  C      257.182     -22.191    -342.691
  N      257.980     -21.253    -343.256
  C      258.524     -21.709    -344.394
  C      258.344     -22.963    -344.965
  C      257.504     -23.860    -344.279
  N      257.263     -25.146    -344.705
  N      259.062     -23.080    -346.137
  C      259.715     -21.930    -346.240
  N      259.389     -21.063    -345.233
  O      265.345     -19.049    -348.006
  O      264.823     -21.404    -347.160
  H      260.872     -19.148    -342.517
  H      265.710     -21.218    -346.775
  H      256.696     -21.905    -341.763
  H      260.429     -21.684    -347.020
  H      259.192     -19.174    -344.419
  H      261.950     -20.519    -344.765
  H      262.900     -18.296    -344.600
  H      260.916     -17.139    -346.258
  H      261.827     -18.658    -348.153
  H      256.745     -25.752    -344.090
  H      257.803     -25.520    -345.473
  H      263.003     -17.641    -347.341
  P      262.188     -16.300    -343.185
  C      260.689     -14.375    -344.142
  O      261.289     -14.987    -343.018
  O      263.458     -16.141    -343.966
  O      262.420     -16.822    -341.687
  H      261.600     -17.044    -341.207
  H      260.020     -13.584    -343.801
  H      260.106     -15.100    -344.710
  H      261.461     -13.937    -344.787
  H      263.874     -21.347    -351.092
  H      265.102     -21.805    -349.937
  H      265.067     -20.179    -350.576

 3  4  5  6  7  8  9  10  11  12  22  25  29  30  31  32 0
 6-311+G(2d,p)
 ****
 33  36  37 0
 6-311+G(2d,p)
 ****
 1  2  13  14  15  16  17  18  19  20  21  23  24  26 0
 3-21G
 ****
 27  28  34  35  38  39  40  41  42  43  44  45  46  47  48 0
 3-21G
 ****


