%nproc=1
%NoSave
%Mem=1900MB
#P OB98/GEN NMR

erre ene a

0 1
  C       -6.360     190.069      92.120
  O       -5.310     190.906      92.561
  H       -6.673     189.433      92.953
  H       -6.031     189.430      91.296
  H       -7.214     190.674      91.803
  P       -4.504     191.752      91.458
  C       -2.402     190.275      91.190
  O       -3.652     190.671      90.626
  C       -1.333     190.137      90.104
  O       -1.897     189.526      88.925
  C       -0.764     191.465      89.629
  O        0.034     192.126      90.588
  C       -0.170     191.103      88.277
  O        1.158     190.596      88.359
  C       -1.128     189.985      87.796
  N       -1.981     190.430      86.702
  C       -1.812     189.765      85.492
  O       -0.984     188.869      85.319
  N       -2.599     190.193      84.460
  C       -3.482     191.232      84.507
  O       -4.131     191.595      83.533
  C       -3.600     191.914      85.805
  C       -2.855     191.489      86.829
  O       -3.687     192.894      91.981
  O       -5.637     192.195      90.418
  H        1.115     189.758      88.860
  H       -5.322     192.933      89.844
  H       -2.497     189.716      83.578
  H       -4.290     192.745      85.879
  H       -2.924     191.978      87.798
  H       -0.552     189.120      87.442
  H       -0.141     191.967      87.608
  H       -1.604     192.139      89.423
  H       -0.541     189.479      90.481
  H       -2.550     189.305      91.675
  H       -2.091     191.005      91.943
  P        0.012     193.709      90.805
  C        2.008     193.820      89.144
  O        0.777     194.396      89.569
  O        0.297     194.203      92.187
  O       -1.533     194.052      90.480
  H       -1.796     194.792      91.060
  H        2.398     194.380      88.319
  H        1.842     192.807      88.841
  H        2.709     193.840      89.952

 6  7  8  9  10  11  12  13  14  15  16  26  31  32  33  34  35 0
 6-311+G(2d,p)
 ****
 36  37 0
 6-311+G(2d,p)
 ****
 1  2  3  4  5  17  18  19  20  21  22  23  24  25 0
 3-21G
 ****
 27  28  29  30  38  39  40  41  42  43  44  45 0
 3-21G
 ****


