%nproc=1
%NoSave
%Mem=1900MB
#P OB98/GEN NMR

erre ene a

0 1
  C      332.727    -867.601    1047.797
  O      332.953    -869.006    1047.564
  P      331.674    -869.992    1047.498
  C      331.490    -870.352    1044.916
  O      330.923    -869.756    1046.092
  C      330.912    -871.745    1044.704
  O      329.534    -871.708    1044.300
  C      331.617    -872.535    1043.622
  O      332.811    -873.146    1044.100
  C      330.562    -873.609    1043.307
  O      330.636    -874.661    1044.293
  C      329.262    -872.831    1043.418
  N      325.381    -872.927    1040.087
  C      325.585    -873.595    1041.251
  N      326.652    -873.512    1042.085
  C      327.552    -872.655    1041.585
  C      327.483    -871.912    1040.413
  C      326.321    -872.074    1039.645
  N      326.108    -871.400    1038.455
  N      328.616    -871.145    1040.240
  C      329.370    -871.408    1041.316
  N      328.761    -872.322    1042.133
  O      330.679    -869.354    1048.567
  O      332.006    -871.411    1047.824
  H      330.052    -875.381    1043.986
  H      330.179    -870.045    1049.001
  H      324.773    -874.257    1041.586
  H      330.322    -870.952    1041.534
  H      328.457    -873.432    1043.870
  H      330.744    -874.084    1042.322
  H      331.798    -871.913    1042.729
  H      330.977    -872.297    1045.644
  H      332.576    -870.390    1045.020
  H      325.236    -871.541    1037.975
  H      326.807    -870.730    1038.123
  H      331.276    -869.690    1044.065
  P      334.116    -873.076    1043.159
  C      334.814    -870.565    1043.537
  O      334.198    -871.540    1042.657
  O      333.648    -873.860    1041.838
  O      335.352    -873.645    1043.756
  H      334.422    -874.276    1041.429
  H      335.044    -869.698    1042.946
  H      335.732    -870.958    1043.971
  H      334.112    -870.279    1044.312
  H      333.665    -867.087    1047.813
  H      332.233    -867.470    1048.737
  H      332.116    -867.203    1047.014

 3  4  5  6  7  8  9  10  11  12  22  25  29  30  31  32 0
 6-311+G(2d,p)
 ****
 33  36  37 0
 6-311+G(2d,p)
 ****
 1  2  13  14  15  16  17  18  19  20  21  23  24  26 0
 3-21G
 ****
 27  28  34  35  38  39  40  41  42  43  44  45  46  47  48 0
 3-21G
 ****


