%nproc=1
%NoSave
%Mem=1900MB
#P OB98/GEN NMR

erre ene a

0 1
  C     -177.964    -445.815    -518.996
  O     -179.111    -445.247    -518.391
  P     -178.911    -444.464    -516.995
  C     -180.090    -442.262    -517.715
  O     -178.874    -442.903    -517.359
  C     -179.801    -440.936    -518.430
  O     -178.866    -441.154    -519.504
  C     -181.020    -440.296    -519.077
  O     -181.807    -439.571    -518.147
  C     -180.361    -439.342    -520.068
  O     -179.930    -438.159    -519.390
  C     -179.156    -440.183    -520.532
  N     -179.676    -439.557    -525.544
  C     -179.250    -438.658    -524.583
  N     -178.987    -437.405    -525.000
  N     -179.099    -438.967    -523.325
  C     -179.427    -440.256    -523.029
  C     -179.860    -441.235    -523.902
  C     -180.023    -440.879    -525.305
  O     -180.466    -441.613    -526.174
  N     -180.072    -442.414    -523.253
  C     -179.758    -442.167    -521.993
  N     -179.401    -440.853    -521.804
  O     -177.393    -444.789    -516.600
  O     -179.873    -444.860    -515.920
  H     -180.719    -437.776    -518.952
  H     -177.243    -444.603    -515.653
  H     -179.795    -439.262    -526.498
  H     -179.792    -442.890    -521.180
  H     -178.253    -439.553    -520.672
  H     -181.046    -439.037    -520.867
  H     -179.147    -437.089    -525.951
  H     -181.623    -441.038    -519.620
  H     -178.734    -436.709    -524.311
  H     -179.343    -440.250    -517.708
  H     -180.667    -442.054    -516.794
  H     -180.684    -442.915    -518.362
  P     -183.236    -440.206    -517.747
  C     -183.328    -438.974    -515.463
  O     -183.252    -440.212    -516.134
  O     -183.066    -441.755    -518.124
  O     -184.410    -439.573    -518.413
  H     -183.937    -442.159    -518.330
  H     -183.592    -439.167    -514.402
  H     -184.090    -438.319    -515.890
  H     -182.346    -438.464    -515.469
  H     -178.245    -446.299    -519.908
  H     -177.528    -446.532    -518.332
  H     -177.252    -445.044    -519.206

 3  4  5  6  7  8  9  10  11  12  23  26  30  31 0
 6-311+G(2d,p)
 ****
 33  35  36  37  38 0
 6-311+G(2d,p)
 ****
 1  2  13  14  15  16  17  18  19  20  21  22  24  25 0
 3-21G
 ****
 27  28  29  32  34  39  40  41  42  43  44  45  46  47  48  49 0
 3-21G
 ****


