%nproc=1
%NoSave
%Mem=1900MB
#P OB98/GEN NMR

erre ene a

0 1
  C      -34.862     345.108     371.479
  O      -35.878     345.905     370.874
  P      -36.204     347.353     371.477
  C      -37.899     348.432     373.097
  O      -37.448     347.230     372.486
  C      -38.649     348.136     374.408
  O      -39.791     347.276     374.135
  C      -37.773     347.440     375.457
  O      -37.810     348.082     376.734
  C      -38.253     346.000     375.423
  O      -37.983     345.291     376.629
  C      -39.725     346.145     375.024
  N      -40.246     344.923     374.401
  C      -40.761     343.958     375.251
  O      -40.729     344.056     376.483
  N      -41.271     342.833     374.657
  C      -41.242     342.558     373.323
  O      -41.666     341.513     372.837
  C      -40.628     343.584     372.466
  C      -40.165     344.706     373.039
  O      -36.307     348.465     370.483
  O      -34.975     347.609     372.481
  H      -38.399     344.407     376.563
  H      -34.728     348.550     372.417
  H      -41.666     342.130     375.269
  H      -40.561     343.391     371.410
  H      -39.692     345.472     372.439
  H      -40.353     346.356     375.898
  H      -37.719     345.478     374.619
  H      -36.712     347.470     375.177
  H      -39.020     349.092     374.796
  H      -38.574     348.954     372.417
  H      -37.047     349.103     373.260
  P      -36.525     348.357     377.652
  C      -35.153     346.996     379.374
  O      -36.378     347.147     378.685
  O      -36.442     349.719     378.254
  O      -35.301     348.131     376.636
  H      -34.621     348.803     376.800
  H      -35.077     345.965     379.735
  H      -35.134     347.670     380.236
  H      -34.299     347.210     378.722
  H      -34.777     344.180     370.954
  H      -35.119     344.918     372.500
  H      -33.928     345.629     371.437

 3  4  5  6  7  8  9  10  11  12  13  23  28  29  30  31  32 0
 6-311+G(2d,p)
 ****
 33  34 0
 6-311+G(2d,p)
 ****
 1  2  14  15  16  17  18  19  20  21  22  24  25  26  27 0
 3-21G
 ****
 35  36  37  38  39  40  41  42  43  44  45 0
 3-21G
 ****


