%nproc=1
%NoSave
%Mem=1900MB
#P OB98/GEN NMR

erre ene a

0 1
  C       36.801      70.063     231.898
  O       35.602      70.383     232.572
  H       36.710      69.056     231.484
  H       37.645      70.079     232.591
  H       36.980      70.762     231.076
  P       35.480      71.818     233.277
  C       34.840      71.017     235.658
  O       35.857      71.534     234.815
  C       35.303      71.020     237.111
  O       36.361      70.060     237.326
  C       35.885      72.343     237.596
  O       34.911      73.352     237.813
  C       36.539      71.884     238.886
  O       35.533      71.680     239.894
  C       37.166      70.543     238.439
  N       38.566      70.681     238.036
  C       39.528      70.254     238.958
  O       39.192      69.795     240.050
  N       40.859      70.384     238.636
  C       41.199      70.918     237.503
  N       42.530      71.031     237.239
  C       40.218      71.403     236.512
  C       38.936      71.253     236.838
  O       34.195      72.550     233.058
  O       36.768      72.625     232.773
  H       34.790      71.218     239.465
  H       36.736      73.526     233.174
  H       40.553      71.867     235.596
  H       38.157      71.591     236.162
  H       37.099      69.793     239.237
  H       37.256      72.605     239.287
  H       36.668      72.699     236.915
  H       34.451      70.703     237.729
  H       43.178      70.692     237.938
  H       34.602      70.002     235.323
  H       42.885      71.503     236.418
  H       33.939      71.635     235.581
  P       35.450      74.855     237.996
  C       34.211      75.196     240.269
  O       35.442      75.147     239.570
  O       34.246      75.741     237.427
  O       36.752      75.151     237.319
  H       34.424      76.017     236.509
  H       34.396      75.400     241.303
  H       33.710      74.255     240.175
  H       33.597      75.970     239.857

 6  7  8  9  10  11  12  13  14  15  16  26  30  31  32  33  35 0
 6-311+G(2d,p)
 ****
 37  38 0
 6-311+G(2d,p)
 ****
 1  2  3  4  5  17  18  19  20  21  22  23  24  25 0
 3-21G
 ****
 27  28  29  34  36  39  40  41  42  43  44  45  46 0
 3-21G
 ****


