%nproc=1
%NoSave
%Mem=1900MB
#P OB98/GEN NMR

erre ene a

0 1
  C      271.951      58.204     -55.398
  O      273.176      57.680     -55.927
  P      273.861      56.462     -55.137
  C      275.258      56.186     -52.955
  O      274.765      57.066     -53.958
  C      276.398      56.853     -52.180
  O      277.539      57.086     -53.027
  C      276.025      58.217     -51.624
  O      275.235      58.086     -50.459
  C      277.396      58.844     -51.374
  O      277.875      58.555     -50.051
  C      278.288      58.168     -52.443
  N      278.754      59.096     -53.456
  C      280.010      59.668     -53.230
  O      280.648      59.389     -52.211
  N      280.505      60.551     -54.155
  C      279.794      60.861     -55.197
  N      280.337      61.751     -56.072
  C      278.452      60.301     -55.459
  C      277.999      59.435     -54.555
  O      274.934      55.908     -56.181
  O      272.898      55.397     -54.714
  H      277.889      57.575     -49.982
  H      275.043      54.942     -56.076
  H      277.896      60.596     -56.337
  H      277.021      58.975     -54.666
  H      279.170      57.712     -51.971
  H      277.362      59.932     -51.468
  H      275.488      58.800     -52.388
  H      276.699      56.185     -51.362
  H      281.257      62.116     -55.861
  H      275.608      55.258     -53.403
  H      279.868      62.064     -56.913
  H      274.430      55.916     -52.284
  P      273.814      58.826     -50.432
  C      273.080      61.274     -50.152
  O      274.149      60.347     -50.049
  O      273.177      58.280     -49.067
  O      272.910      58.619     -51.596
  H      272.257      58.589     -48.976
  H      273.379      62.210     -49.669
  H      272.190      60.889     -49.646
  H      272.860      61.472     -51.202
  H      271.608      59.005     -56.019
  H      272.118      58.568     -54.406
  H      271.213      57.430     -55.375

 3  4  5  6  7  8  9  10  11  12  13  21  23  27  28  29  30  32 0
 6-311+G(2d,p)
 ****
 34  35 0
 6-311+G(2d,p)
 ****
 1  2  14  15  16  17  18  19  20  22  24  25  26 0
 3-21G
 ****
 31  33  36  37  38  39  40  41  42  43  44  45  46 0
 3-21G
 ****


