%nproc=1
%NoSave
%Mem=1900MB
#P OB98/GEN NMR

erre ene a

0 1
  C     -354.451    -939.884     911.847
  O     -353.183    -939.454     911.389
  P     -352.271    -938.502     912.303
  C     -351.347    -940.165     914.025
  O     -352.292    -939.127     913.781
  C     -349.961    -939.558     914.274
  O     -349.474    -938.892     913.081
  C     -349.934    -938.473     915.343
  O     -350.215    -938.864     916.669
  C     -348.594    -937.824     915.073
  O     -347.529    -938.563     915.651
  C     -348.517    -937.891     913.524
  N     -348.761    -936.593     912.904
  C     -347.640    -935.951     912.400
  O     -346.509    -936.416     912.444
  N     -347.863    -934.709     911.831
  C     -349.065    -934.058     911.790
  O     -349.184    -932.940     911.316
  C     -350.207    -934.791     912.352
  C     -350.022    -936.006     912.886
  O     -352.603    -937.046     912.234
  O     -350.790    -938.848     911.806
  H     -347.443    -939.406     915.160
  H     -350.525    -939.779     911.920
  H     -347.071    -934.216     911.477
  H     -351.173    -934.298     912.318
  H     -350.835    -936.558     913.314
  H     -347.526    -938.249     913.204
  H     -348.543    -936.810     915.485
  H     -350.711    -937.725     915.093
  H     -349.268    -940.363     914.502
  H     -351.305    -940.831     913.158
  H     -351.677    -940.755     914.890
  P     -350.878    -937.891     917.757
  C     -353.269    -938.599     917.057
  O     -352.369    -937.547     917.281
  O     -350.026    -936.762     918.255
  O     -351.152    -938.907     918.982
  H     -351.080    -938.426     919.805
  H     -354.215    -938.180     916.697
  H     -353.460    -939.145     917.994
  H     -352.870    -939.282     916.299
  H     -354.906    -940.507     911.105
  H     -355.073    -939.032     912.028
  H     -354.333    -940.438     912.755

 3  4  5  6  7  8  9  10  11  12  13  23  28  29  30  31  32 0
 6-311+G(2d,p)
 ****
 33  34 0
 6-311+G(2d,p)
 ****
 1  2  14  15  16  17  18  19  20  21  22  24  25  26  27 0
 3-21G
 ****
 35  36  37  38  39  40  41  42  43  44  45 0
 3-21G
 ****


