%nproc=1
%NoSave
%Mem=1900MB
#P OB98/GEN NMR

erre ene a

0 1
  C      125.881     142.702    -221.598
  O      127.287     142.431    -221.610
  P      128.238     143.505    -222.329
  C      130.276     143.420    -220.681
  O      129.738     143.076    -221.951
  C      131.530     142.592    -220.404
  O      131.174     141.238    -220.035
  C      132.464     142.458    -221.597
  O      133.182     143.659    -221.833
  C      133.318     141.273    -221.162
  O      134.342     141.702    -220.253
  C      132.286     140.392    -220.420
  N      131.843     139.247    -221.203
  C      132.825     138.320    -221.535
  O      134.010     138.452    -221.217
  N      132.407     137.239    -222.264
  C      131.139     137.018    -222.709
  O      130.820     136.025    -223.351
  C      130.150     138.059    -222.370
  C      130.539     139.109    -221.646
  O      127.960     144.806    -221.440
  O      127.952     143.659    -223.783
  H      127.811     144.602    -220.502
  H      134.721     140.890    -219.861
  H      133.103     136.550    -222.505
  H      129.138     137.926    -222.731
  H      129.828     139.888    -221.388
  H      132.720     140.017    -219.485
  H      133.809     140.780    -222.007
  H      131.886     142.191    -222.493
  H      132.060     143.052    -219.558
  H      129.536     143.231    -219.897
  H      130.498     144.490    -220.672
  P      133.264     144.170    -223.355
  C      132.960     146.694    -222.741
  O      133.776     145.689    -223.296
  O      131.710     144.297    -223.723
  O      134.035     143.262    -224.254
  H      131.185     144.718    -223.019
  H      133.590     147.550    -222.473
  H      132.446     146.342    -221.841
  H      132.223     147.018    -223.480
  H      125.370     141.911    -221.091
  H      125.522     142.771    -222.604
  H      125.700     143.627    -221.091

 3  4  5  6  7  8  9  10  11  12  13  24  28  29  30  31  32 0
 6-311+G(2d,p)
 ****
 33  34 0
 6-311+G(2d,p)
 ****
 1  2  14  15  16  17  18  19  20  21  22  23  25  26  27 0
 3-21G
 ****
 35  36  37  38  39  40  41  42  43  44  45 0
 3-21G
 ****


