%nproc=1
%NoSave
%Mem=1900MB
#P OB98/GEN NMR

erre ene a

0 1
  C      -18.747      16.907      -3.512
  O      -17.559      16.247      -3.953
  P      -16.960      15.140      -2.956
  C      -18.390      13.064      -3.560
  O      -17.131      13.709      -3.666
  C      -18.723      12.293      -4.842
  O      -19.007      13.214      -5.938
  C      -17.590      11.367      -5.316
  O      -18.216      10.215      -5.895
  C      -16.917      12.211      -6.384
  O      -16.069      11.461      -7.239
  C      -18.145      12.837      -7.033
  N      -16.281      14.290     -11.552
  C      -16.447      13.072     -10.993
  N      -16.949      12.767      -9.778
  C      -17.305      13.885      -9.123
  C      -17.195      15.195      -9.561
  C      -16.653      15.383     -10.844
  N      -16.460      16.620     -11.414
  N      -17.647      16.075      -8.589
  C      -17.951      15.301      -7.563
  N      -17.840      13.975      -7.868
  O      -18.018      15.104      -1.758
  O      -15.577      15.445      -2.486
  H      -16.532      10.654      -7.541
  H      -17.696      15.629      -1.002
  H      -16.130      12.230     -11.602
  H      -18.256      15.648      -6.586
  H      -18.695      12.118      -7.655
  H      -16.301      12.980      -5.903
  H      -16.921      11.047      -4.513
  H      -19.633      11.706      -4.665
  H      -19.175      13.801      -3.374
  H      -16.060      16.653     -12.338
  H      -16.713      17.459     -10.914
  H      -18.379      12.399      -2.690
  P      -18.090       8.805      -5.139
  C      -19.160       9.119      -2.830
  O      -19.374       8.749      -4.177
  O      -16.928       9.139      -4.087
  O      -17.817       7.617      -5.996
  H      -17.114       9.965      -3.607
  H      -20.121       9.116      -2.309
  H      -18.730      10.123      -2.775
  H      -18.494       8.400      -2.346
  H      -19.054      17.619      -4.250
  H      -18.553      17.412      -2.589
  H      -19.523      16.185      -3.367

 3  4  5  6  7  8  9  10  11  12  22  25  29  30  31  32 0
 6-311+G(2d,p)
 ****
 33  36  37 0
 6-311+G(2d,p)
 ****
 1  2  13  14  15  16  17  18  19  20  21  23  24  26 0
 3-21G
 ****
 27  28  34  35  38  39  40  41  42  43  44  45  46  47  48 0
 3-21G
 ****


