%nproc=1
%NoSave
%Mem=1900MB
#P OB98/GEN NMR

erre ene a

0 1
  C     -252.470    -162.219     110.030
  O     -253.088    -162.400     108.772
  H     -253.165    -162.538     110.813
  H     -252.229    -161.164     110.183
  H     -251.561    -162.823     110.098
  P     -252.214    -162.028     107.479
  C     -253.482    -163.628     105.865
  O     -253.160    -162.284     106.208
  C     -254.998    -163.799     105.814
  O     -255.545    -163.626     107.142
  C     -255.713    -162.780     104.937
  O     -255.632    -163.109     103.563
  C     -257.129    -162.852     105.496
  O     -257.865    -163.942     104.926
  C     -256.886    -163.109     106.988
  N     -260.115    -160.542     109.984
  C     -260.206    -161.750     109.386
  N     -259.287    -162.373     108.615
  C     -258.179    -161.620     108.497
  C     -257.947    -160.369     109.043
  C     -258.979    -159.823     109.825
  N     -258.902    -158.576     110.405
  N     -256.709    -159.894     108.659
  C     -256.199    -160.846     107.902
  N     -257.050    -161.907     107.783
  O     -251.154    -163.227     107.409
  O     -251.550    -160.693     107.522
  H     -257.748    -163.882     103.958
  H     -250.328    -162.960     107.856
  H     -261.138    -162.284     109.543
  H     -255.229    -160.808     107.418
  H     -257.572    -163.862     107.397
  H     -257.687    -161.938     105.282
  H     -255.313    -161.774     105.122
  H     -255.222    -164.821     105.485
  H     -253.067    -164.302     106.622
  H     -253.033    -163.861     104.893
  H     -259.690    -158.240     110.934
  H     -258.100    -157.991     110.203
  P     -255.059    -162.015     102.545
  C     -254.708    -163.874     100.761
  O     -255.234    -162.589     101.057
  O     -253.477    -162.075     102.790
  O     -255.600    -160.637     102.740
  H     -253.193    -161.341     103.368
  H     -254.904    -164.112      99.736
  H     -255.172    -164.603     101.392
  H     -253.652    -163.875     100.932

 6  7  8  9  10  11  12  13  14  15  25  28  32  33  34  35 0
 6-311+G(2d,p)
 ****
 36  37  40 0
 6-311+G(2d,p)
 ****
 1  2  3  4  5  16  17  18  19  20  21  22  23  24 0
 3-21G
 ****
 26  27  29  30  31  38  39 41  42  43  44  45  46  47  48 0
 3-21G
 ****


