%nproc=1
%NoSave
%Mem=1900MB
#P OB98/GEN NMR

erre ene a

0 1
  C      129.837    -107.135     -55.164
  O      129.378    -106.447     -56.330
  P      128.020    -105.607     -56.169
  C      129.052    -103.337     -55.451
  O      128.357    -104.064     -56.453
  C      128.386    -101.981     -55.208
  O      128.950    -101.286     -54.080
  C      128.510    -101.027     -56.389
  O      127.551    -101.355     -57.380
  C      128.252     -99.680     -55.727
  O      126.840     -99.413     -55.613
  C      128.880     -99.860     -54.336
  N      131.618     -96.465     -51.752
  C      130.255     -96.695     -51.745
  N      129.521     -95.928     -50.912
  N      129.668     -97.598     -52.486
  C      130.525     -98.292     -53.270
  C      131.894     -98.176     -53.345
  C      132.532     -97.171     -52.521
  O      133.735     -96.945     -52.476
  N      132.429     -99.096     -54.210
  C      131.372     -99.679     -54.746
  N      130.197     -99.273     -54.165
  O      127.739    -105.660     -54.595
  O      126.879    -106.167     -56.951
  H      126.698     -98.752     -54.910
  H      126.961    -106.222     -54.416
  H      132.017     -95.750     -51.168
  H      131.405    -100.414     -55.536
  H      128.248     -99.424     -53.552
  H      128.674     -98.855     -56.308
  H      129.908     -95.215     -50.311
  H      129.528    -101.058     -56.795
  H      128.521     -96.087     -50.884
  H      127.326    -102.168     -54.994
  H      130.091    -103.189     -55.748
  H      129.069    -103.934     -54.532
  P      128.088    -101.909     -58.785
  C      127.551    -104.449     -58.847
  O      127.153    -103.139     -59.203
  O      129.480    -102.598     -58.396
  O      128.278    -100.864     -59.833
  H      130.159    -102.355     -59.053
  H      126.660    -105.064     -58.711
  H      128.134    -104.457     -57.920
  H      128.155    -104.874     -59.654
  H      130.744    -107.656     -55.391
  H      129.093    -107.835     -54.847
  H      130.018    -106.428     -54.381

 3  4  5  6  7  8  9  10  11  12  23  26  30  31 0
 6-311+G(2d,p)
 ****
 33  35  36  37  38 0
 6-311+G(2d,p)
 ****
 1  2  13  14  15  16  17  18  19  20  21  22  24  25 0
 3-21G
 ****
 27  28  29  32  34  39  40  41  42  43  44  45  46  47  48  49 0
 3-21G
 ****


