%nproc=1
%NoSave
%Mem=1900MB
#P OB98/GEN NMR

erre ene a

0 1
  C     -466.905     115.912     121.493
  O     -467.503     115.725     122.760
  H     -465.861     116.204     121.636
  H     -467.423     116.707     120.947
  H     -466.937     114.982     120.916
  P     -469.034     115.248     122.772
  C     -469.966     117.001     124.458
  O     -469.615     115.642     124.218
  C     -469.931     117.287     125.956
  O     -471.079     116.675     126.589
  C     -468.714     116.715     126.674
  O     -467.563     117.523     126.493
  C     -469.209     116.679     128.114
  O     -469.060     117.953     128.754
  C     -470.699     116.351     127.945
  N     -470.336     112.666     131.453
  C     -470.026     113.983     131.485
  N     -470.172     114.902     130.510
  C     -470.707     114.346     129.411
  C     -471.068     113.020     129.225
  C     -470.867     112.155     130.316
  N     -471.148     110.812     130.269
  N     -471.541     112.820     127.945
  C     -471.477     114.005     127.368
  N     -470.985     114.956     128.217
  O     -468.911     113.651     122.834
  O     -469.853     115.703     121.611
  H     -469.536     117.893     129.607
  H     -468.965     113.285     121.932
  H     -469.601     114.340     132.420
  H     -471.763     114.220     126.344
  H     -471.334     116.948     128.608
  H     -468.656     115.950     128.706
  H     -468.524     115.686     126.339
  H     -469.995     118.374     126.105
  H     -470.979     117.185     124.076
  H     -469.260     117.649     123.922
  H     -470.954     110.244     131.079
  H     -471.443     110.403     129.391
  P     -466.155     116.801     126.238
  C     -465.015     118.078     128.198
  O     -465.006     117.764     126.815
  O     -465.975     116.900     124.654
  O     -466.082     115.392     126.724
  H     -466.216     116.054     124.228
  H     -464.192     118.724     128.422
  H     -464.927     117.177     128.769
  H     -465.932     118.570     128.446

 6  7  8  9  10  11  12  13  14  15  25  28  32  33  34  35 0
 6-311+G(2d,p)
 ****
 36  37  40 0
 6-311+G(2d,p)
 ****
 1  2  3  4  5  16  17  18  19  20  21  22  23  24 0
 3-21G
 ****
 26  27  29  30  31  38  39 41  42  43  44  45  46  47  48 0
 3-21G
 ****


