%nproc=1
%NoSave
%Mem=1900MB
#P OB98/GEN NMR

erre ene a

0 1
  C     -315.871      43.881      19.965
  O     -316.247      43.246      21.170
  H     -315.134      43.255      19.452
  H     -315.420      44.856      20.174
  H     -316.742      44.008      19.316
  P     -317.251      44.064      22.123
  C     -316.880      46.128      23.678
  O     -316.319      45.216      22.745
  C     -315.889      47.252      23.962
  O     -315.512      47.919      22.738
  C     -316.433      48.347      24.872
  O     -316.423      47.984      26.243
  C     -315.446      49.460      24.577
  O     -314.202      49.197      25.253
  C     -315.287      49.322      23.045
  N     -316.213      50.168      22.291
  C     -315.979      51.547      22.335
  O     -315.045      52.005      22.988
  N     -316.837      52.385      21.659
  C     -317.834      51.889      20.991
  N     -318.658      52.765      20.353
  C     -318.104      50.442      20.905
  C     -317.268      49.650      21.571
  O     -317.470      43.085      23.369
  O     -318.512      44.547      21.488
  H     -313.862      48.354      24.899
  H     -317.979      43.551      24.076
  H     -318.953      50.078      20.344
  H     -317.405      48.575      21.555
  H     -314.262      49.562      22.735
  H     -315.791      50.442      24.911
  H     -317.432      48.671      24.560
  H     -314.978      46.801      24.382
  H     -318.483      53.752      20.482
  H     -317.110      45.582      24.599
  H     -319.552      52.487      19.964
  H     -317.806      46.553      23.276
  P     -317.548      48.626      27.192
  C     -317.942      50.975      28.229
  O     -317.017      50.074      27.637
  O     -317.427      47.762      28.532
  O     -318.938      48.601      26.630
  H     -318.305      47.587      28.921
  H     -317.444      51.891      28.470
  H     -318.341      50.541      29.122
  H     -318.738      51.172      27.541

 6  7  8  9  10  11  12  13  14  15  16  26  30  31  32  33  35 0
 6-311+G(2d,p)
 ****
 37  38 0
 6-311+G(2d,p)
 ****
 1  2  3  4  5  17  18  19  20  21  22  23  24  25 0
 3-21G
 ****
 27  28  29  34  36  39  40  41  42  43  44  45  46 0
 3-21G
 ****


