%nproc=1
%NoSave
%Mem=1900MB
#P OB98/GEN NMR

erre ene a

0 1
  C      528.397     198.896    -422.667
  O      528.453     199.688    -421.500
  P      527.131     199.972    -420.639
  C      526.480     202.471    -420.611
  O      526.414     201.240    -421.332
  C      527.859     203.119    -420.816
  O      528.245     203.091    -422.192
  C      527.914     204.580    -420.418
  O      527.721     204.905    -419.054
  C      529.212     205.024    -421.069
  O      530.336     204.662    -420.262
  C      529.195     204.179    -422.380
  N      528.871     204.995    -423.551
  C      529.880     205.852    -423.998
  O      530.979     205.924    -423.454
  N      529.564     206.642    -425.072
  C      528.345     206.701    -425.699
  O      528.129     207.446    -426.631
  C      527.315     205.787    -425.173
  C      527.620     204.998    -424.137
  O      527.353     200.113    -419.165
  O      526.159     198.773    -421.041
  H      530.223     205.095    -419.389
  H      525.944     198.721    -421.996
  H      530.275     207.262    -425.400
  H      526.347     205.797    -425.656
  H      526.876     204.310    -423.723
  H      530.182     203.716    -422.537
  H      529.253     206.111    -421.230
  H      527.091     205.112    -420.950
  H      528.590     202.528    -420.241
  H      526.331     202.270    -419.536
  H      525.672     203.136    -420.951
  P      527.429     206.395    -418.522
  C      529.480     207.218    -417.160
  O      528.813     207.179    -418.414
  O      526.471     206.512    -417.398
  O      526.776     207.070    -419.838
  H      526.129     207.752    -419.557
  H      530.384     207.835    -417.259
  H      529.767     206.221    -416.856
  H      528.837     207.673    -416.405
  H      529.374     198.824    -423.097
  H      527.730     199.346    -423.372
  H      528.045     197.917    -422.417

 3  4  5  6  7  8  9  10  11  12  13  23  28  29  30  31  32 0
 6-311+G(2d,p)
 ****
 33  34 0
 6-311+G(2d,p)
 ****
 1  2  14  15  16  17  18  19  20  21  22  24  25  26  27 0
 3-21G
 ****
 35  36  37  38  39  40  41  42  43  44  45 0
 3-21G
 ****


