%nproc=1
%NoSave
%Mem=1900MB
#P OB98/GEN NMR

erre ene a

0 1
  C       23.983      31.108      -3.473
  O       23.405      30.542      -2.314
  H       24.426      30.308      -4.072
  H       24.768      31.818      -3.199
  H       23.218      31.614      -4.067
  P       22.791      31.576      -1.248
  C       20.504      31.271      -2.468
  O       21.501      32.168      -2.002
  C       19.371      32.056      -3.120
  O       18.497      31.172      -3.854
  C       18.472      32.790      -2.132
  O       19.043      33.997      -1.656
  C       17.258      33.045      -3.006
  O       17.535      34.127      -3.913
  C       17.147      31.701      -3.762
  N       16.262      30.741      -3.100
  C       14.917      30.758      -3.486
  O       14.517      31.555      -4.332
  N       14.043      29.889      -2.876
  C       14.474      29.068      -1.970
  N       13.564      28.240      -1.390
  C       15.885      29.006      -1.546
  C       16.713      29.859      -2.143
  O       23.812      32.808      -1.286
  O       22.531      31.033       0.116
  H       18.218      33.810      -4.532
  H       23.452      33.557      -0.752
  H       16.195      28.312      -0.778
  H       17.765      29.872      -1.880
  H       16.788      31.857      -4.786
  H       16.370      33.322      -2.435
  H       18.175      32.143      -1.300
  H       19.816      32.750      -3.846
  H       12.594      28.349      -1.656
  H       20.127      30.701      -1.613
  H       13.769      27.702      -0.558
  H       20.934      30.579      -3.198
  P       18.203      34.846      -0.583
  C       18.513      32.905       1.115
  O       17.611      33.801       0.482
  O       16.912      35.297      -1.411
  O       18.930      36.015       0.005
  H       16.646      36.207      -1.181
  H       17.974      32.276       1.792
  H       19.249      33.463       1.655
  H       18.995      32.302       0.374

 6  7  8  9  10  11  12  13  14  15  16  26  30  31  32  33  35 0
 6-311+G(2d,p)
 ****
 37  38 0
 6-311+G(2d,p)
 ****
 1  2  3  4  5  17  18  19  20  21  22  23  24  25 0
 3-21G
 ****
 27  28  29  34  36  39  40  41  42  43  44  45  46 0
 3-21G
 ****


