%nproc=1
%NoSave
%Mem=1900MB
#P OB98/GEN NMR

erre ene a

0 1
  C     -732.691     664.472       1.500
  O     -734.095     664.258       1.603
  P     -735.052     665.245       0.797
  C     -735.272     666.917       2.763
  O     -734.829     666.702       1.433
  C     -736.076     668.209       2.858
  O     -735.198     669.340       2.783
  C     -737.101     668.406       1.732
  O     -738.297     667.674       1.971
  C     -737.337     669.902       1.818
  O     -738.294     670.181       2.860
  C     -735.953     670.443       2.212
  N     -733.095     674.292       0.552
  C     -733.660     674.072       1.789
  N     -733.413     675.011       2.730
  N     -734.415     673.060       2.068
  C     -734.533     672.180       1.048
  C     -734.015     672.272      -0.220
  C     -733.240     673.445      -0.548
  O     -732.762     673.711      -1.647
  N     -734.354     671.169      -0.979
  C     -735.031     670.406      -0.158
  N     -735.195     670.979       1.085
  O     -736.517     664.841       1.313
  O     -734.947     665.156      -0.693
  H     -737.970     669.779       3.677
  H     -737.186     665.071       0.635
  H     -732.495     675.089       0.384
  H     -735.426     669.418      -0.419
  H     -736.019     671.224       2.974
  H     -737.753     670.322       0.903
  H     -732.751     675.765       2.607
  H     -736.651     668.154       0.758
  H     -733.797     674.882       3.659
  H     -736.577     668.233       3.847
  H     -734.407     666.989       3.440
  H     -735.881     666.061       3.078
  P     -739.085     667.135       0.680
  C     -740.363     669.342       0.162
  O     -739.346     668.444      -0.225
  O     -740.528     666.764       1.257
  O     -738.419     665.981      -0.007
  H     -740.943     666.091       0.702
  H     -740.435     669.428       1.249
  H     -741.322     668.995      -0.243
  H     -740.141     670.334      -0.256
  H     -732.175     663.742       2.088
  H     -732.452     665.452       1.858
  H     -732.391     664.383       0.477

 3  4  5  6  7  8  9  10  11  12  23  26  30  31  33  0
 6-311+G(2d,p)
 ****
 35  36  37  38 0
 6-311+G(2d,p)
 ****
 1  2  13  14  15  16  17  18  19  20  21  22  24  25  27  28  29 0
 3-21G
 ****
 32  34  39  40  41  42  43  44  45  46  47  48  49 0
 3-21G
 ****


