%nproc=1
%NoSave
%Mem=1900MB
#P OB98/GEN NMR

erre ene a

0 1
  C       21.994    -531.105     410.741
  O       22.443    -530.476     409.559
  H       22.818    -531.693     411.158
  H       21.168    -531.778     410.511
  H       21.681    -530.368     411.487
  P       21.535    -529.332     408.894
  C       19.606    -530.884     408.161
  O       20.019    -529.836     409.029
  C       18.088    -530.850     407.970
  O       17.718    -531.908     407.036
  C       17.300    -531.086     409.278
  O       16.093    -530.313     409.229
  C       16.977    -532.562     409.174
  O       15.902    -532.926     410.004
  C       16.698    -532.698     407.678
  N       16.725    -534.091     407.252
  C       15.559    -534.829     407.437
  O       14.533    -534.368     407.941
  N       15.619    -536.148     407.092
  C       16.743    -536.818     406.695
  O       16.761    -538.023     406.475
  C       17.963    -536.005     406.568
  C       17.897    -534.698     406.842
  O       21.931    -528.901     407.520
  O       21.583    -528.128     409.947
  H       15.889    -533.891     410.125
  H       21.352    -527.285     409.511
  H       14.779    -536.694     407.208
  H       18.873    -536.504     406.269
  H       18.779    -534.070     406.777
  H       15.724    -532.263     407.417
  H       17.847    -533.160     409.469
  H       17.873    -530.830     410.177
  H       17.807    -529.897     407.508
  H       19.907    -531.840     408.613
  H       20.107    -530.777     407.190
  P       15.516    -529.560     410.527
  C       13.478    -531.061     410.966
  O       14.725    -530.593     411.472
  O       14.752    -528.310     410.219
  O       16.821    -529.201     411.387
  H       16.758    -528.276     411.691
  H       13.039    -531.738     411.669
  H       13.637    -531.566     410.036
  H       12.821    -530.231     410.813

 6  7  8  9  10  11  12  13  14  15  16  26  31  32  33  34  35 0
 6-311+G(2d,p)
 ****
 36  37 0
 6-311+G(2d,p)
 ****
 1  2  3  4  5  17  18  19  20  21  22  23  24  25 0
 3-21G
 ****
 27  28  29  30  38  39  40  41  42  43  44  45 0
 3-21G
 ****


