%nproc=1
%NoSave
%Mem=1900MB
#P OB98/GEN NMR

erre ene a

0 1
  C     -150.170    -250.890     257.855
  O     -149.958    -249.848     256.930
  H     -150.665    -250.477     258.739
  H     -149.226    -251.337     258.163
  H     -150.820    -251.663     257.428
  P     -149.197    -250.176     255.556
  C     -146.874    -250.619     256.604
  O     -147.999    -251.181     255.922
  C     -145.664    -251.569     256.504
  O     -144.470    -250.786     256.780
  C     -145.747    -252.722     257.518
  O     -145.579    -254.004     256.915
  C     -144.738    -252.304     258.592
  O     -144.180    -253.387     259.309
  C     -143.719    -251.468     257.807
  N     -142.997    -250.499     258.633
  C     -141.878    -250.957     259.324
  O     -141.435    -252.093     259.283
  N     -141.226    -250.014     260.089
  C     -141.597    -248.707     260.251
  O     -140.979    -247.915     260.945
  C     -142.808    -248.287     259.513
  C     -143.436    -249.185     258.760
  O     -148.796    -248.990     254.744
  O     -150.217    -251.119     254.760
  H     -143.388    -253.035     259.793
  H     -150.635    -250.607     254.041
  H     -140.407    -250.323     260.578
  H     -143.135    -247.262     259.630
  H     -144.334    -248.923     258.196
  H     -142.977    -252.104     257.321
  H     -145.249    -251.661     259.317
  H     -146.737    -252.781     257.975
  H     -145.587    -251.938     255.475
  H     -147.161    -250.474     257.655
  H     -146.621    -249.645     256.167
  P     -146.711    -255.134     256.848
  C     -146.593    -255.995     259.342
  O     -147.327    -255.315     258.322
  O     -146.350    -256.374     256.112
  O     -147.918    -254.434     256.041
  H     -148.373    -255.142     255.541
  H     -147.168    -256.011     260.244
  H     -145.669    -255.485     259.517
  H     -146.393    -256.998     259.029

 6  7  8  9  10  11  12  13  14  15  16  26  31  32  33  34  35 0
 6-311+G(2d,p)
 ****
 36  37 0
 6-311+G(2d,p)
 ****
 1  2  3  4  5  17  18  19  20  21  22  23  24  25 0
 3-21G
 ****
 27  28  29  30  38  39  40  41  42  43  44  45 0
 3-21G
 ****


