%nproc=1
%NoSave
%Mem=1900MB
#P OB98/GEN NMR

erre ene a

0 1
  C     -893.520     154.220    -893.263
  O     -892.760     153.185    -893.843
  H     -893.360     155.140    -893.833
  H     -893.200     154.389    -892.223
  H     -894.580     153.975    -893.283
  P     -892.850     151.745    -893.143
  C     -893.900     150.789    -895.313
  O     -894.020     150.938    -893.923
  C     -895.130     150.075    -895.903
  O     -895.120     148.680    -895.433
  C     -896.470     150.698    -895.453
  O     -897.390     150.622    -896.553
  C     -896.950     149.751    -894.343
  O     -898.360     149.829    -894.163
  C     -896.430     148.423    -894.893
  N     -898.380     144.031    -893.343
  C     -898.640     144.755    -894.483
  N     -899.540     144.268    -895.373
  N     -898.050     145.897    -894.753
  C     -897.130     146.266    -893.803
  C     -896.810     145.649    -892.643
  C     -897.480     144.388    -892.343
  O     -897.320     143.673    -891.333
  N     -895.860     146.332    -891.933
  C     -895.620     147.412    -892.673
  N     -896.370     147.409    -893.823
  O     -893.500     152.056    -891.723
  O     -891.550     150.997    -893.033
  H     -898.570     149.305    -893.363
  H     -893.190     151.417    -891.043
  H     -898.870     143.167    -893.183
  H     -894.920     148.228    -892.433
  H     -897.070     148.004    -895.683
  H     -896.450     150.018    -893.393
  H     -900.000     143.386    -895.233
  H     -896.380     151.728    -895.113
  H     -899.720     144.809    -896.213
  H     -895.060     150.031    -896.983
  H     -893.000     150.198    -895.533
  H     -893.810     151.778    -895.803
  P     -898.010     152.014    -897.093
  C     -896.950     152.227    -899.463
  O     -896.970     152.662    -898.113
  O     -897.940     152.964    -895.803
  O     -899.410     151.902    -897.603
  H     -898.840     153.122    -895.473
  H     -896.196     152.765    -900.000
  H     -897.905     152.409    -899.911
  H     -896.734     151.180    -899.497

 6  7  8  9  10  11  12  13  14  15  26  29  33  34 0
 6-311+G(2d,p)
 ****
 36  38  39  40  41 0
 6-311+G(2d,p)
 ****
 1  2  3  4  5  16  17  18  19  20  21  22  23  24  25 0
 3-21G
 ****
 27  28  30  31  32  35  37  42  43  44  45  46  47 0
 3-21G
 ****
 48  49 0
 3-21G
 ****


