%nproc=1
%NoSave
%Mem=1900MB
#P OB98/GEN NMR

erre ene a

0 1
  C       99.785     371.474     155.014
  O      100.200     370.820     153.836
  H       99.498     370.721     155.750
  H       98.916     372.101     154.797
  H      100.585     372.090     155.435
  P      101.088     371.628     152.780
  C       98.875     372.127     151.547
  O      100.125     372.642     151.988
  C       97.741     373.129     151.764
  O       97.525     373.318     153.180
  C       98.057     374.508     151.178
  O       97.711     374.658     149.811
  C       97.213     375.427     152.058
  O       95.884     375.576     151.536
  C       97.182     374.692     153.406
  N       97.688     377.560     157.608
  C       96.568     377.360     156.826
  N       95.460     378.041     157.193
  N       96.551     376.581     155.776
  C       97.757     376.048     155.476
  C       98.941     376.190     156.167
  C       98.935     376.995     157.367
  O       99.895     377.190     158.102
  N       99.972     375.533     155.536
  C       99.429     375.069     154.428
  N       98.070     375.287     154.387
  O      101.425     370.529     151.659
  O      102.348     372.233     153.323
  H       95.632     374.730     151.114
  H      102.296     370.722     151.267
  H       97.633     378.147     158.418
  H       99.957     374.536     153.650
  H       96.175     374.703     153.841
  H       97.649     376.427     152.105
  H       95.440     378.717     157.938
  H       99.109     374.762     151.329
  H       94.675     378.071     156.541
  H       96.811     372.721     151.349
  H       98.690     371.222     152.127
  H       98.934     371.836     150.494
  P       98.807     375.088     148.731
  C       97.960     377.570     148.881
  O       99.041     376.663     148.848
  O       98.025     374.935     147.342
  O      100.075     374.298     148.753
  H       98.251     374.088     146.914
  H       98.335     378.569     148.962
  H       97.338     377.353     149.724
  H       97.387     377.475     147.982

 6  7  8  9  10  11  12  13  14  15  26  29  33  34 0
 6-311+G(2d,p)
 ****
 36  38  39  40  41 0
 6-311+G(2d,p)
 ****
 1  2  3  4  5  16  17  18  19  20  21  22  23  24  25 0
 3-21G
 ****
 27  28  30  31  32  35  37  42  43  44  45  46  47 0
 3-21G
 ****
 48  49 0
 3-21G
 ****


