%nproc=1
%NoSave
%Mem=1900MB
#P OB98/GEN NMR

erre ene a

0 1
  C     -196.387     -92.778      66.932
  O     -196.297     -91.382      66.732
  H     -197.028     -93.203      66.155
  H     -196.834     -92.991      67.907
  H     -195.400     -93.246      66.865
  P     -195.255     -90.541      67.611
  C     -195.221     -89.505      69.974
  O     -195.937     -90.309      69.045
  C     -195.418     -90.044      71.389
  O     -194.982     -91.419      71.463
  C     -194.622     -89.300      72.455
  O     -195.222     -88.054      72.757
  C     -194.643     -90.316      73.586
  O     -195.892     -90.264      74.295
  C     -194.504     -91.646      72.807
  N     -193.139     -92.167      72.797
  C     -192.619     -92.570      74.023
  O     -193.239     -92.471      75.081
  N     -191.346     -93.082      73.995
  C     -190.535     -93.145      72.900
  O     -189.380     -93.563      72.939
  C     -191.122     -92.672      71.637
  C     -192.377     -92.214      71.644
  O     -194.710     -89.307      66.971
  O     -194.094     -91.598      67.933
  H     -196.570     -90.633      73.694
  H     -193.338     -91.450      67.335
  H     -190.950     -93.367      74.876
  H     -190.506     -92.705      70.748
  H     -192.827     -91.857      70.722
  H     -195.158     -92.412      73.244
  H     -193.856     -90.145      74.320
  H     -193.583     -89.164      72.126
  H     -196.491     -90.020      71.616
  H     -195.605     -88.478      69.917
  H     -194.162     -89.507      69.701
  P     -194.413     -86.928      73.552
  C     -193.174     -86.757      75.790
  O     -194.133     -87.486      75.034
  O     -195.011     -85.560      73.506
  O     -192.959     -86.947      72.881
  H     -192.847     -86.162      72.312
  H     -193.062     -87.208      76.754
  H     -193.504     -85.746      75.905
  H     -192.234     -86.769      75.280

 6  7  8  9  10  11  12  13  14  15  16  26  31  32  33  34  35 0
 6-311+G(2d,p)
 ****
 36  37 0
 6-311+G(2d,p)
 ****
 1  2  3  4  5  17  18  19  20  21  22  23  24  25 0
 3-21G
 ****
 27  28  29  30  38  39  40  41  42  43  44  45 0
 3-21G
 ****


