%nproc=1
%NoSave
%Mem=1900MB
#P OB98/GEN NMR

erre ene a

0 1
  C     -223.937    -279.609     309.610
  O     -223.508    -280.707     308.838
  H     -224.135    -279.919     310.642
  H     -223.152    -278.849     309.614
  H     -224.845    -279.176     309.174
  P     -224.486    -281.980     308.799
  C     -224.167    -282.431     306.266
  O     -223.978    -282.909     307.592
  C     -222.946    -282.752     305.413
  O     -221.897    -281.789     305.654
  C     -222.311    -284.108     305.690
  O     -223.028    -285.170     305.070
  C     -220.939    -283.914     305.056
  O     -221.033    -284.104     303.632
  C     -220.635    -282.443     305.372
  N     -215.882    -281.193     306.875
  C     -216.445    -281.276     305.645
  N     -217.709    -281.627     305.321
  C     -218.430    -281.889     306.427
  C     -217.994    -281.841     307.741
  C     -216.650    -281.485     307.952
  N     -216.080    -281.414     309.204
  N     -219.010    -282.165     308.607
  C     -220.050    -282.404     307.833
  N     -219.747    -282.256     306.505
  O     -225.863    -281.375     308.249
  O     -224.679    -282.679     310.103
  H     -221.099    -285.067     303.483
  H     -226.610    -281.833     308.682
  H     -215.796    -281.036     304.810
  H     -221.042    -282.674     308.191
  H     -220.197    -281.931     304.504
  H     -220.188    -284.616     305.435
  H     -222.191    -284.280     306.766
  H     -223.240    -282.668     304.355
  H     -224.312    -281.344     306.290
  H     -215.184    -280.963     309.301
  H     -216.667    -281.624     310.005
  H     -225.059    -282.900     305.841
  P     -222.420    -286.650     305.208
  C     -224.807    -287.667     305.359
  O     -223.567    -287.631     304.661
  O     -222.436    -286.910     306.789
  O     -221.061    -286.834     304.631
  H     -221.758    -287.568     307.025
  H     -225.466    -288.361     304.880
  H     -225.249    -286.693     305.351
  H     -224.638    -287.974     306.370

 6  7  8  9  10  11  12  13  14  15  25  28  32  33  34  35 0
 6-311+G(2d,p)
 ****
 36  39  40 0
 6-311+G(2d,p)
 ****
 1  2  3  4  5  16  17  18  19  20  21  22  23  24 0
 3-21G
 ****
 26  27  29  30  31  37  38  41  42  43  44  45  46  47  48 0
 3-21G
 ****


