%nproc=1
%NoSave
%Mem=1900MB
#P OB98/GEN NMR

erre ene a

0 1
  C      -61.476    -202.551    -142.384
  O      -60.955    -201.363    -141.816
  P      -59.958    -200.484    -142.711
  C      -61.182    -198.253    -142.139
  O      -60.750    -199.161    -143.145
  C      -62.672    -197.959    -142.316
  O      -63.460    -199.112    -141.948
  C      -63.177    -196.822    -141.438
  O      -62.836    -195.558    -141.981
  C      -64.675    -197.090    -141.418
  O      -65.312    -196.547    -142.585
  C      -64.722    -198.632    -141.439
  N      -65.032    -199.200    -140.131
  C      -66.264    -199.838    -140.021
  O      -67.067    -199.907    -140.952
  N      -66.561    -200.359    -138.792
  C      -65.789    -200.260    -137.671
  O      -66.135    -200.699    -136.581
  C      -64.510    -199.550    -137.840
  C      -64.199    -199.055    -139.040
  O      -59.831    -201.316    -144.073
  O      -58.626    -200.231    -142.089
  H      -64.876    -196.960    -143.357
  H      -58.925    -201.233    -144.428
  H      -67.437    -200.847    -138.697
  H      -63.873    -199.451    -136.971
  H      -63.268    -198.517    -139.181
  H      -65.483    -198.975    -142.151
  H      -65.163    -196.640    -140.548
  H      -62.781    -196.930    -140.421
  H      -62.859    -197.740    -143.375
  H      -60.610    -197.326    -142.220
  H      -60.990    -198.692    -141.156
  P      -61.687    -194.727    -141.227
  C      -60.632    -193.576    -143.321
  O      -60.520    -194.554    -142.311
  O      -61.146    -195.831    -140.201
  O      -62.193    -193.477    -140.589
  H      -61.205    -196.731    -140.566
  H      -61.135    -192.677    -142.954
  H      -61.192    -193.988    -144.163
  H      -59.629    -193.305    -143.661
  H      -62.121    -203.031    -141.678
  H      -60.671    -203.209    -142.636
  H      -62.030    -202.311    -143.268

 3  4  5  6  7  8  9  10  11  12  13  23  28  29  30  31  32 0
 6-311+G(2d,p)
 ****
 33  34 0
 6-311+G(2d,p)
 ****
 1  2  14  15  16  17  18  19  20  21  22  24  25  26 0
 3-21G
 ****
 27  35  36  37  38  39  40  41  42  43  44  45 0
 3-21G
 ****


