%nproc=1
%NoSave
%Mem=1900MB
#P OB98/GEN NMR

erre ene a

0 1
  C       93.390     173.313     364.945
  O       94.581     173.238     364.185
  P       95.418     174.585     363.934
  C       94.503     174.993     361.505
  O       94.600     175.434     362.847
  C       94.397     176.194     360.554
  O       93.067     176.773     360.680
  C       95.414     177.312     360.830
  O       95.770     177.874     359.561
  C       94.604     178.307     361.641
  O       95.149     179.617     361.600
  C       93.229     178.173     360.981
  N       92.128     178.650     361.820
  C       91.211     179.526     361.249
  O       91.282     179.941     360.094
  N       90.198     179.950     362.080
  C       90.063     179.638     363.402
  O       89.145     180.061     364.102
  C       91.087     178.746     363.960
  C       92.053     178.293     363.155
  O       96.677     174.024     363.129
  O       95.752     175.323     365.188
  H       96.450     173.290     362.529
  H       96.078     179.566     361.894
  H       89.502     180.558     361.681
  H       91.020     178.492     365.011
  H       92.824     177.636     363.542
  H       93.222     178.708     360.022
  H       94.580     177.987     362.690
  H       96.309     176.948     361.342
  H       94.495     175.821     359.527
  H       93.610     174.367     361.396
  H       95.378     174.381     361.259
  P       97.247     178.505     359.395
  C       96.327     180.917     358.955
  O       97.134     180.065     359.735
  O       97.386     178.496     357.794
  O       98.338     177.744     360.080
  H       96.606     178.867     357.350
  H       96.116     181.827     359.527
  H       95.372     180.438     358.703
  H       96.853     181.190     358.037
  H       92.953     172.339     365.021
  H       92.701     173.976     364.464
  H       93.614     173.681     365.924

 3  4  5  6  7  8  9  10  11  12  13  24  28  29  30  31  32 0
 6-311+G(2d,p)
 ****
 33  34 0
 6-311+G(2d,p)
 ****
 1  2  14  15  16  17  18  19  20  21  22  23  25  26  27 0
 3-21G
 ****
 35  36  37  38  39  40  41  42  43  44  45 0
 3-21G
 ****


