%nproc=1
%NoSave
%Mem=1900MB
#P OB98/GEN NMR

erre ene a

0 1
  C      546.935     371.578    -782.418
  O      545.542     371.357    -782.552
  H      547.459     370.661    -782.723
  H      547.198     371.799    -781.381
  H      547.254     372.391    -783.068
  P      544.542     372.449    -781.926
  C      544.283     373.340    -784.343
  O      544.534     373.670    -782.973
  C      542.961     373.937    -784.817
  O      542.972     375.372    -784.658
  C      542.675     373.702    -786.292
  O      542.397     372.355    -786.618
  C      541.644     374.779    -786.603
  O      540.313     374.395    -786.313
  C      542.076     375.918    -785.645
  N      542.681     377.041    -786.364
  C      541.828     378.095    -786.671
  O      540.627     378.096    -786.387
  N      542.382     379.140    -787.354
  C      543.677     379.204    -787.797
  O      544.105     380.149    -788.450
  C      544.526     378.047    -787.465
  C      543.991     377.030    -786.781
  O      544.838     372.867    -780.514
  O      543.097     371.798    -782.112
  H      539.727     375.121    -786.637
  H      542.433     372.244    -781.541
  H      541.786     379.917    -787.575
  H      545.558     378.060    -787.814
  H      544.611     376.167    -786.528
  H      541.213     376.306    -785.090
  H      541.671     375.066    -787.658
  H      543.576     373.971    -786.854
  H      542.156     373.529    -784.187
  H      544.237     372.244    -784.411
  H      545.116     373.694    -784.964
  P      542.529     371.760    -788.101
  C      544.322     369.992    -787.485
  O      544.003     371.130    -788.250
  O      541.976     372.595    -789.208
  O      541.612     370.437    -787.989
  H      541.182     370.298    -788.855
  H      545.329     369.694    -787.692
  H      543.655     369.194    -787.737
  H      544.225     370.223    -786.445

 6  7  8  9  10  11  12  13  14  15  16  26  31  32  33  34  35 0
 6-311+G(2d,p)
 ****
 36  37 0
 6-311+G(2d,p)
 ****
 1  2  3  4  5  17  18  19  20  21  22  23  24  25 0
 3-21G
 ****
 27  28  29  30  38  39  40  41  42  43  44  45 0
 3-21G
 ****


