%nproc=1
%NoSave
%Mem=1900MB
#P OB98/GEN NMR

erre ene a

0 1
  C     -223.341    -580.367    -269.266
  O     -222.403    -581.107    -268.508
  H     -222.869    -580.049    -270.195
  H     -223.655    -579.483    -268.709
  H     -224.211    -580.989    -269.505
  P     -222.926    -581.747    -267.131
  C     -222.704    -584.245    -267.799
  O     -223.579    -583.164    -267.515
  C     -223.473    -585.438    -268.356
  O     -224.335    -584.984    -269.442
  C     -222.588    -586.564    -268.909
  O     -223.229    -587.813    -268.639
  C     -222.638    -586.324    -270.416
  O     -222.308    -587.488    -271.164
  C     -224.087    -585.858    -270.562
  N     -225.723    -586.547    -275.270
  C     -225.665    -587.422    -274.205
  N     -226.117    -588.677    -274.425
  N     -225.209    -587.097    -273.028
  C     -224.826    -585.801    -272.937
  C     -224.832    -584.833    -273.918
  C     -225.314    -585.216    -275.230
  O     -225.371    -584.488    -276.213
  N     -224.333    -583.646    -273.440
  C     -224.038    -583.894    -272.178
  N     -224.321    -585.182    -271.825
  O     -224.190    -580.832    -266.777
  O     -221.930    -581.781    -266.021
  H     -223.010    -588.151    -271.010
  H     -223.925    -580.106    -266.179
  H     -226.070    -586.853    -276.162
  H     -223.613    -583.173    -271.477
  H     -224.801    -586.686    -270.511
  H     -221.935    -585.523    -270.692
  H     -226.520    -588.982    -275.294
  H     -221.566    -586.576    -268.513
  H     -226.116    -589.323    -273.640
  H     -224.140    -585.819    -267.567
  H     -222.195    -584.542    -266.873
  H     -221.951    -583.914    -268.524
  P     -223.147    -588.390    -267.150
  C     -225.657    -587.850    -266.743
  O     -224.321    -587.729    -266.286
  O     -221.832    -587.688    -266.565
  O     -223.044    -589.889    -267.072
  H     -221.430    -588.247    -265.876
  H     -226.314    -587.357    -266.057
  H     -225.919    -588.885    -266.808
  H     -225.746    -587.399    -267.709

 6  7  8  9  10  11  12  13  14  15  26  29  33  34 0
 6-311+G(2d,p)
 ****
 36  38  39  40  41 0
 6-311+G(2d,p)
 ****
 1  2  3  4  5  16  17  18  19  20  21  22  23  24  25 0
 3-21G
 ****
 27  28  30  31  32  35  37  42  43  44  45  46  47 0
 3-21G
 ****
 48  49 0
 3-21G
 ****


