%nproc=1
%NoSave
%Mem=1900MB
#P OB98/GEN NMR

erre ene a

0 1
  C       39.944     355.773     -27.801
  O       38.718     355.341     -27.245
  H       39.767     356.296     -28.745
  H       40.424     356.463     -27.102
  H       40.606     354.918     -27.968
  P       37.833     354.343     -28.136
  C       36.439     354.626     -30.315
  O       37.278     355.239     -29.346
  C       36.422     355.478     -31.580
  O       37.735     355.491     -32.187
  C       35.471     354.965     -32.655
  O       34.131     355.366     -32.433
  C       36.051     355.636     -33.888
  O       35.667     357.021     -33.915
  C       37.560     355.505     -33.631
  N       38.960     353.131     -37.946
  C       38.462     354.366     -37.717
  N       38.135     354.930     -36.536
  C       38.381     354.086     -35.523
  C       38.893     352.801     -35.601
  C       39.186     352.319     -36.887
  N       39.665     351.050     -37.128
  N       38.984     352.237     -34.344
  C       38.550     353.171     -33.522
  N       38.142     354.297     -34.190
  O       36.526     354.093     -27.245
  O       38.502     353.078     -28.560
  H       34.703     357.048     -34.073
  H       36.023     353.329     -27.587
  H       38.302     354.979     -38.598
  H       38.502     353.081     -32.445
  H       38.130     356.353     -34.027
  H       35.696     355.188     -34.820
  H       35.548     353.878     -32.772
  H       36.177     356.510     -31.298
  H       35.425     354.547     -29.912
  H       39.702     350.747     -38.090
  H       39.697     350.391     -36.365
  H       36.817     353.624     -30.541
  P       32.969     354.392     -32.964
  C       31.939     354.222     -35.344
  O       33.122     354.330     -34.561
  O       31.646     355.268     -32.756
  O       32.893     353.075     -32.264
  H       30.881     354.699     -32.551
  H       32.199     354.192     -36.381
  H       31.310     355.068     -35.159
  H       31.418     353.325     -35.081

 6  7  8  9  10  11  12  13  14  15  25  28  32  33  34  35 0
 6-311+G(2d,p)
 ****
 36  39  40 0
 6-311+G(2d,p)
 ****
 1  2  3  4  5  16  17  18  19  20  21  22  23  24 0
 3-21G
 ****
 26  27  29  30  31  37  38  41  42  43  44  45  46  47 0
 3-21G
 ****
 48 0
 3-21G
 ****


