%nproc=1
%NoSave
%Mem=1900MB
#P OB98/GEN NMR

erre ene a

0 1
  C     -890.310    -897.470    -899.380
  O     -891.110    -898.020    -898.350
  H     -890.960    -896.860    -900.000
  H     -889.880    -898.290    -899.970
  H     -889.520    -896.850    -898.970
  P     -890.380    -898.710    -897.080
  C     -891.210    -897.540    -894.950
  O     -890.230    -897.580    -895.960
  C     -891.930    -896.180    -894.920
  O     -892.630    -896.010    -896.210
  C     -893.000    -896.110    -893.790
  O     -893.240    -894.780    -893.340
  C     -894.260    -896.640    -894.510
  O     -895.470    -896.200    -893.890
  C     -894.050    -896.050    -895.940
  N     -898.420    -898.070    -897.600
  C     -898.150    -897.490    -896.350
  N     -899.120    -897.460    -895.450
  N     -896.930    -897.040    -896.000
  C     -896.020    -897.220    -897.030
  C     -896.180    -897.770    -898.280
  C     -897.510    -898.250    -898.620
  O     -897.820    -898.780    -899.690
  N     -895.010    -897.760    -898.990
  C     -894.150    -897.240    -898.160
  N     -894.710    -896.820    -896.970
  O     -888.870    -898.910    -897.590
  O     -890.960    -900.000    -896.620
  H     -895.540    -895.250    -894.050
  H     -888.420    -899.610    -897.070
  H     -899.370    -898.390    -897.790
  H     -893.080    -897.060    -898.390
  H     -894.440    -895.030    -895.970
  H     -894.250    -897.740    -894.500
  H     -900.000    -898.010    -895.590
  H     -892.750    -896.780    -892.960
  H     -898.860    -897.370    -894.470
  H     -891.190    -895.370    -894.830
  H     -890.690    -897.700    -893.990
  H     -891.920    -898.370    -895.070
  P     -892.720    -894.380    -891.870
  C     -890.490    -892.980    -892.250
  O     -891.120    -894.220    -891.900
  O     -892.920    -895.740    -891.010
  O     -893.420    -893.230    -891.250
  H     -893.580    -895.600    -890.300
  H     -889.427    -893.095    -892.206
  H     -890.795    -892.219    -891.563
  H     -890.778    -892.701    -893.242

 6  7  8  9  10  11  12  13  14  15  26  29  33  34 0
 6-311+G(2d,p)
 ****
 36  38  39  40  41 0
 6-311+G(2d,p)
 ****
 1  2  3  4  5  16  17  18  19  20  21  22  23  24  25 0
 3-21G
 ****
 27  28  30  31  32  35  37  42  43  44  45  46  47 0
 3-21G
 ****
 48  49 0
 3-21G
 ****


