%nproc=1
%NoSave
%Mem=1900MB
#P OB98/GEN NMR

erre ene a

0 1
  C     -135.245     -73.332    -150.616
  O     -135.468     -71.967    -150.328
  H     -135.475     -73.922    -149.723
  H     -134.197     -73.491    -150.880
  H     -135.891     -73.665    -151.433
  P     -135.387     -70.948    -151.567
  C     -133.644     -70.467    -153.430
  O     -133.916     -71.105    -152.191
  C     -132.237     -69.877    -153.423
  O     -132.133     -68.841    -152.418
  C     -131.136     -70.884    -153.114
  O     -130.755     -71.622    -154.268
  C     -130.022     -69.953    -152.668
  O     -129.414     -69.332    -153.819
  C     -130.793     -68.910    -151.847
  N     -129.027     -67.848    -147.215
  C     -128.667     -67.323    -148.443
  N     -127.692     -66.391    -148.441
  N     -129.213     -67.686    -149.577
  C     -130.169     -68.636    -149.430
  C     -130.612     -69.228    -148.268
  C     -130.006     -68.813    -147.023
  O     -130.304     -69.225    -145.904
  N     -131.602     -70.140    -148.517
  C     -131.744     -70.118    -149.828
  N     -130.892     -69.225    -150.431
  O     -135.333     -69.508    -150.860
  O     -136.512     -71.031    -152.541
  H     -128.724     -68.733    -153.483
  H     -135.825     -68.869    -151.411
  H     -128.568     -67.540    -146.374
  H     -132.446     -70.720    -150.387
  H     -130.352     -67.909    -151.924
  H     -129.228     -70.473    -152.127
  H     -127.196     -66.104    -147.608
  H     -131.414     -71.545    -152.283
  H     -127.432     -65.969    -149.324
  H     -132.065     -69.403    -154.400
  H     -134.373     -69.663    -153.590
  H     -133.741     -71.200    -154.239
  P     -130.448     -73.190    -154.081
  C     -128.477     -74.498    -153.000
  O     -128.928     -73.273    -153.572
  O     -130.362     -73.721    -155.588
  O     -131.453     -73.939    -153.274
  H     -130.542     -74.681    -155.615
  H     -127.452     -74.400    -152.711
  H     -128.571     -75.284    -153.720
  H     -129.070     -74.730    -152.140

 6  7  8  9  10  11  12  13  14  15  26  29  33  34 0
 6-311+G(2d,p)
 ****
 36  38  39  40  41 0
 6-311+G(2d,p)
 ****
 1  2  3  4  5  16  17  18  19  20  21  22  23  24  25 0
 3-21G
 ****
 27  28  30  31  32  35  37  42  43  44  45  46  47 0
 3-21G
 ****
 48  49 0
 3-21G
 ****


