%nproc=1
%NoSave
%Mem=1900MB
#P OB98/GEN NMR

erre ene a

0 1
  C      -90.488    -552.610     417.956
  O      -90.718    -553.767     417.191
  H      -90.431    -551.750     417.292
  H      -89.535    -552.704     418.496
  H      -91.298    -552.456     418.668
  P      -90.862    -555.163     417.980
  C      -88.729    -556.290     416.995
  O      -90.144    -556.250     417.026
  C      -88.236    -556.812     415.645
  O      -87.991    -558.240     415.751
  C      -89.224    -556.590     414.501
  O      -88.507    -556.156     413.333
  C      -89.836    -557.951     414.262
  O      -90.319    -558.108     412.927
  C      -88.698    -558.894     414.672
  N      -89.198    -560.214     415.095
  C      -89.784    -560.995     414.098
  O      -89.872    -560.586     412.940
  N      -90.302    -562.219     414.444
  C      -90.299    -562.591     415.685
  N      -90.842    -563.805     415.975
  C      -89.733    -561.765     416.775
  C      -89.203    -560.600     416.409
  O      -92.413    -555.497     417.833
  O      -90.369    -555.144     419.388
  H      -90.754    -558.994     412.861
  H      -92.689    -556.223     418.444
  H      -89.771    -562.116     417.805
  H      -88.770    -559.935     417.147
  H      -87.986    -559.029     413.843
  H      -90.693    -558.090     414.944
  H      -89.987    -555.851     414.745
  H      -87.251    -556.359     415.428
  H      -91.229    -564.341     415.195
  H      -88.367    -556.943     417.810
  H      -90.920    -564.188     416.911
  H      -88.334    -555.272     417.163
  P      -87.977    -554.616     413.370
  C      -89.758    -554.118     411.558
  O      -88.428    -553.930     411.992
  O      -86.392    -554.769     413.252
  O      -88.388    -553.892     414.608
  H      -85.966    -554.688     414.125
  H      -89.907    -553.604     410.631
  H      -90.431    -553.730     412.293
  H      -89.944    -555.163     411.420

 6  7  8  9  10  11  12  13  14  15  16  26  30  31  32  33  35 0
 6-311+G(2d,p)
 ****
 37  38 0
 6-311+G(2d,p)
 ****
 1  2  3  4  5  17  18  19  20  21  22  23  24  25 0
 3-21G
 ****
 27  28  29  34  36  39  40  41  42  43  44  45  46 0
 3-21G
 ****


