%nproc=1
%NoSave
%Mem=1900MB
#P OB98/GEN NMR

erre ene a

0 1
  C     -196.458     662.892     307.287
  O     -196.005     664.006     308.028
  P     -194.991     665.083     307.406
  C     -196.983     666.247     306.264
  O     -195.712     665.646     306.081
  C     -196.853     667.733     306.596
  O     -196.015     668.386     305.599
  C     -198.185     668.499     306.649
  O     -198.029     669.504     307.662
  C     -198.252     669.134     305.275
  O     -199.161     670.234     305.218
  C     -196.780     669.486     305.042
  N     -196.476     669.696     303.633
  C     -196.905     670.909     303.070
  O     -197.564     671.699     303.751
  N     -196.619     671.172     301.758
  C     -196.055     670.257     301.028
  N     -195.792     670.568     299.732
  C     -195.705     668.914     301.550
  C     -195.925     668.719     302.837
  O     -193.597     664.589     307.198
  O     -195.097     666.326     308.406
  H     -199.166     670.577     304.292
  H     -194.575     666.139     309.236
  H     -195.290     668.166     300.889
  H     -195.699     667.762     303.307
  H     -196.504     670.392     305.595
  H     -198.586     668.387     304.539
  H     -199.046     667.860     306.867
  H     -196.334     667.824     307.561
  H     -196.037     671.506     299.424
  H     -197.477     665.746     307.102
  H     -195.287     669.965     299.107
  H     -197.598     666.101     305.375
  P     -199.276     669.995     308.550
  C     -198.721     668.684     310.673
  O     -199.607     668.814     309.578
  O     -200.453     670.492     307.764
  O     -198.669     671.140     309.489
  H     -199.399     671.661     309.875
  H     -199.190     668.054     311.445
  H     -198.488     669.660     311.105
  H     -197.790     668.198     310.340
  H     -197.122     662.309     307.890
  H     -195.621     662.293     306.996
  H     -196.975     663.231     306.413

 3  4  5  6  7  8  9  10  11  12  13  23  27  28  29  30  32 0
 6-311+G(2d,p)
 ****
 34  35 0
 6-311+G(2d,p)
 ****
 1  2  14  15  16  17  18  19  20  21  22  24  25  26 0
 3-21G
 ****
 31  33  36  37  38  39  40  41  42  43  44  45  46 0
 3-21G
 ****


