%nproc=1
%NoSave
%Mem=1900MB
#P OB98/GEN NMR

erre ene a

0 1
  C      -72.646     -36.953     183.090
  O      -71.836     -37.934     183.715
  P      -70.325     -38.104     183.210
  C      -70.801     -40.015     181.518
  O      -70.366     -38.677     181.710
  C      -70.085     -40.655     180.327
  O      -70.411     -42.070     180.267
  C      -70.472     -40.042     178.978
  O      -69.335     -40.070     178.101
  C      -71.492     -41.017     178.427
  O      -71.580     -40.935     177.005
  C      -70.937     -42.341     178.953
  N      -73.993     -45.283     176.209
  C      -72.907     -44.531     175.807
  N      -72.659     -44.494     174.480
  N      -72.131     -43.880     176.631
  C      -72.505     -44.004     177.929
  C      -73.551     -44.733     178.449
  C      -74.409     -45.437     177.522
  O      -75.403     -46.097     177.812
  N      -73.594     -44.643     179.816
  C      -72.602     -43.829     180.125
  N      -71.936     -43.385     179.010
  O      -69.798     -39.347     184.072
  O      -69.461     -36.906     183.415
  H      -71.991     -40.075     176.795
  H      -69.200     -39.031     184.775
  H      -74.569     -45.758     175.531
  H      -72.342     -43.510     181.126
  H      -70.107     -42.703     178.334
  H      -72.482     -40.800     178.842
  H      -73.257     -44.918     173.787
  H      -70.859     -39.019     179.037
  H      -71.895     -43.915     174.155
  H      -69.003     -40.582     180.489
  H      -71.876     -40.016     181.330
  H      -70.613     -40.595     182.427
  P      -68.671     -38.646     177.766
  C      -69.623     -38.712     175.346
  O      -69.544     -38.025     176.578
  O      -67.291     -39.041     177.059
  O      -68.470     -37.770     178.958
  H      -66.637     -38.326     177.169
  H      -70.662     -39.008     175.172
  H      -68.991     -39.603     175.324
  H      -69.308     -38.039     174.544
  H      -73.620     -36.960     183.533
  H      -72.727     -37.170     182.045
  H      -72.202     -35.988     183.220

 3  4  5  6  7  8  9  10  11  12  23  26  30  31 0
 6-311+G(2d,p)
 ****
 33  35  36  37  38 0
 6-311+G(2d,p)
 ****
 1  2  13  14  15  16  17  18  19  20  21  22  24  25 0
 3-21G
 ****
 27  28  29  32  34  39  40  41  42  43  44  45  46  47  48  49 0
 3-21G
 ****


