%nproc=1
%NoSave
%Mem=1900MB
#P OB98/GEN NMR

erre ene a

0 1
  C     1939.294    -141.447    -376.676
  O     1940.589    -141.599    -376.129
  H     1938.592    -141.956    -376.017
  H     1939.249    -141.923    -377.664
  H     1939.037    -140.401    -376.752
  P     1941.816    -140.992    -376.971
  C     1942.658    -139.657    -374.944
  O     1942.128    -139.575    -376.256
  C     1942.614    -138.261    -374.277
  O     1943.304    -137.319    -375.145
  C     1941.212    -137.709    -374.049
  O     1941.196    -136.950    -372.813
  C     1940.990    -136.764    -375.182
  O     1940.005    -135.790    -374.926
  C     1942.410    -136.254    -375.397
  N     1942.444    -131.970    -378.201
  C     1942.395    -132.180    -376.850
  N     1942.425    -133.350    -376.197
  C     1942.555    -134.383    -377.082
  C     1942.609    -134.326    -378.432
  C     1942.530    -133.048    -379.047
  N     1942.518    -132.824    -380.385
  N     1942.685    -135.617    -378.992
  C     1942.677    -136.419    -377.917
  N     1942.578    -135.719    -376.753
  O     1941.610    -140.906    -378.443
  O     1943.040    -141.897    -376.490
  H     1940.277    -135.306    -374.112
  H     1943.054    -142.004    -375.528
  H     1942.339    -131.289    -376.248
  H     1942.744    -137.495    -377.975
  H     1942.640    -135.404    -374.696
  H     1940.652    -137.345    -376.078
  H     1940.440    -138.518    -373.986
  H     1943.199    -138.315    -373.333
  H     1943.653    -140.038    -374.924
  H     1942.483    -131.875    -380.708
  H     1942.601    -133.618    -381.023
  H     1942.010    -140.347    -374.342
  P     1941.273    -137.747    -371.414
  C     1943.521    -136.747    -370.619
  O     1942.837    -137.943    -370.992
  O     1940.476    -139.003    -371.326
  O     1940.771    -136.657    -370.320
  H     1940.140    -137.086    -369.734
  H     1944.533    -136.980    -370.362
  H     1943.032    -136.304    -369.777
  H     1943.511    -136.060    -371.439

 6  7  8  9  10  11  12  13  14  15  25  28  32  33  34  35 0
 6-311+G(2d,p)
 ****
 36  39  40 0
 6-311+G(2d,p)
 ****
 1  2  3  4  5  16  17  18  19  20  21  22  23  24 0
 3-21G
 ****
 26  27  29  30  31  37  38  41  42  43  44  45  46  47 0
 3-21G
 ****
 48 0
 3-21G
 ****


