%nproc=1
%NoSave
%Mem=1900MB
#P OB98/GEN NMR

erre ene a

0 1
  C      351.076     180.843     583.628
  O      352.273     181.423     584.109
  H      350.231     181.453     583.959
  H      350.955     179.829     584.029
  H      351.078     180.814     582.534
  P      353.664     180.692     583.794
  C      353.173     179.442     586.002
  O      353.665     179.346     584.667
  C      354.005     178.560     586.938
  O      353.717     178.870     588.313
  C      353.749     177.058     586.776
  O      354.484     176.543     585.668
  C      354.266     176.543     588.107
  O      355.709     176.520     588.093
  C      353.771     177.631     589.084
  N      351.063     174.752     592.269
  C      352.365     174.616     591.834
  N      353.034     173.525     592.298
  N      352.959     175.445     591.018
  C      352.151     176.442     590.582
  C      350.829     176.674     590.926
  C      350.209     175.785     591.886
  O      349.060     175.885     592.312
  N      350.312     177.722     590.211
  C      351.319     178.154     589.480
  N      352.459     177.403     589.660
  O      354.901     181.520     583.954
  O      353.493     180.151     582.300
  H      356.008     177.395     587.792
  H      353.823     180.797     581.646
  H      350.655     174.082     592.889
  H      351.287     179.003     588.813
  H      354.464     177.796     589.907
  H      353.924     175.531     588.334
  H      352.589     172.777     592.805
  H      352.681     176.831     586.696
  H      353.975     173.375     591.940
  H      355.067     178.799     586.763
  H      352.131     179.105     585.994
  H      353.207     180.476     586.350
  P      353.796     175.568     584.589
  C      354.501     173.596     586.115
  O      353.456     174.224     585.390
  O      354.589     175.379     583.335
  O      352.346     176.197     584.359
  H      352.340     176.927     583.673
  H      354.124     172.717     586.594
  H      354.878     174.271     586.854
  H      355.289     173.326     585.443

 6  7  8  9  10  11  12  13  14  15  26  29  33  34 0
 6-311+G(2d,p)
 ****
 36  38  39  40  41 0
 6-311+G(2d,p)
 ****
 1  2  3  4  5  16  17  18  19  20  21  22  23  24  25 0
 3-21G
 ****
 27  28  30  31  32  35  37  42  43  44  45  46  47 0
 3-21G
 ****
 48  49 0
 3-21G
 ****


