%nproc=1
%NoSave
%Mem=1900MB
#P OB98/GEN NMR

erre ene a

0 1
  C     1578.721    2442.263    -899.450
  O     1577.903    2441.107    -899.420
  H     1579.626    2442.073    -900.000
  H     1578.151    2443.063    -899.940
  H     1578.950    2442.568    -898.420
  P     1578.520    2439.797    -898.730
  C     1576.252    2439.373    -897.540
  O     1577.269    2438.829    -898.380
  C     1575.060    2438.424    -897.550
  O     1575.504    2437.068    -897.260
  C     1573.982    2438.750    -896.510
  O     1573.118    2439.775    -896.930
  C     1573.273    2437.406    -896.410
  O     1572.391    2437.236    -897.520
  C     1574.441    2436.423    -896.470
  N     1573.867    2433.266    -892.490
  C     1573.158    2433.406    -893.620
  N     1573.354    2434.254    -894.660
  C     1574.452    2435.038    -894.390
  C     1575.263    2435.021    -893.260
  C     1574.928    2434.062    -892.300
  N     1575.647    2433.904    -891.110
  N     1576.244    2435.988    -893.340
  C     1576.032    2436.556    -894.520
  N     1574.949    2436.033    -895.180
  O     1578.990    2440.304    -897.290
  O     1579.621    2439.116    -899.480
  H     1571.687    2436.603    -897.250
  H     1579.664    2439.709    -896.910
  H     1572.287    2432.750    -893.760
  H     1576.654    2437.359    -894.920
  H     1574.171    2435.491    -897.010
  H     1572.631    2437.330    -895.490
  H     1574.453    2438.997    -895.540
  H     1574.610    2438.398    -898.560
  H     1575.919    2440.364    -897.970
  H     1575.228    2433.308    -890.410
  H     1576.351    2434.591    -890.900
  H     1576.626    2439.510    -896.530
  P     1572.489    2440.740    -895.810
  C     1571.945    2442.632    -897.550
  O     1571.469    2441.703    -896.600
  O     1573.713    2441.736    -895.460
  O     1571.944    2440.031    -894.590
  H     1573.632    2442.072    -894.550
  H     1571.120    2443.174    -897.963
  H     1572.457    2442.112    -898.332
  H     1572.619    2443.314    -897.075

 6  7  8  9  10  11  12  13  14  15  25  28  32  33  34  35 0
 6-311+G(2d,p)
 ****
 36  39  40 0
 6-311+G(2d,p)
 ****
 1  2  3  4  5  16  17  18  19  20  21  22  23  24 0
 3-21G
 ****
 26  27  29  30  31  37  38  41  42  43  44  45  46  47 0
 3-21G
 ****
 48 0
 3-21G
 ****


