%nproc=1
%NoSave
%Mem=1900MB
#P OB98/GEN NMR

erre ene a

0 1
  C     1257.718     380.330    -364.396
  O     1257.847     379.145    -365.155
  H     1256.726     380.370    -363.930
  H     1258.480     380.326    -363.605
  H     1257.869     381.210    -365.021
  P     1256.827     378.955    -366.381
  C     1257.995     376.750    -367.118
  O     1256.788     377.382    -366.678
  C     1257.728     375.264    -367.366
  O     1257.431     374.594    -366.139
  C     1256.527     374.979    -368.281
  O     1256.858     375.123    -369.655
  C     1256.237     373.531    -367.914
  O     1257.204     372.671    -368.586
  C     1256.462     373.531    -366.407
  N     1253.143     371.493    -363.084
  C     1254.242     371.004    -363.697
  N     1255.064     371.606    -364.556
  C     1254.678     372.858    -364.806
  C     1253.576     373.516    -364.264
  C     1252.780     372.765    -363.362
  N     1251.654     373.295    -362.764
  N     1253.455     374.790    -364.774
  C     1254.512     374.916    -365.577
  N     1255.271     373.775    -365.644
  O     1257.640     379.546    -367.645
  O     1255.486     379.601    -366.222
  H     1258.048     373.146    -368.567
  H     1257.018     379.771    -368.359
  H     1254.498     369.960    -363.445
  H     1254.744     375.812    -366.139
  H     1256.901     372.589    -366.046
  H     1255.242     373.205    -368.239
  H     1255.654     375.599    -368.005
  H     1258.650     374.823    -367.789
  H     1258.751     376.851    -366.341
  H     1251.064     372.625    -362.267
  H     1251.303     374.171    -363.058
  H     1258.339     377.230    -368.043
  P     1255.630     375.198    -370.702
  C     1257.434     375.124    -372.586
  O     1256.203     374.603    -372.086
  O     1255.504     376.766    -371.004
  O     1254.352     374.611    -370.216
  H     1254.587     376.995    -371.254
  H     1257.682     374.634    -373.504
  H     1258.211     374.953    -371.870
  H     1257.333     376.175    -372.759

 6  7  8  9  10  11  12  13  14  15  25  28  32  33  34  35 0
 6-311+G(2d,p)
 ****
 36  39  40 0
 6-311+G(2d,p)
 ****
 1  2  3  4  5  16  17  18  19  20  21  22  23  24 0
 3-21G
 ****
 26  27  29  30  31  37  38  41  42  43  44  45  46  47 0
 3-21G
 ****
 48 0
 3-21G
 ****


