%nproc=1
%NoSave
%Mem=1900MB
#P OB98/GEN NMR

erre ene a

0 1
  C      -28.984     -70.672     -42.334
  O      -27.672     -71.205     -42.389
  P      -26.419     -70.384     -41.814
  C      -25.225     -72.435     -40.826
  O      -25.200     -71.426     -41.828
  C      -23.979     -73.311     -40.933
  O      -23.998     -73.976     -42.218
  C      -22.641     -72.576     -40.881
  O      -22.165     -72.305     -39.571
  C      -21.730     -73.603     -41.543
  O      -21.392     -74.635     -40.599
  C      -22.627     -74.167     -42.647
  N      -20.138     -74.362     -47.112
  C      -20.154     -75.196     -46.048
  N      -20.829     -75.064     -44.887
  C      -21.582     -73.952     -44.903
  C      -21.673     -73.011     -45.914
  C      -20.905     -73.249     -47.066
  N      -20.908     -72.408     -48.158
  N      -22.536     -71.993     -45.556
  C      -22.965     -72.326     -44.357
  N      -22.424     -73.505     -43.923
  O      -26.673     -69.698     -40.518
  O      -26.038     -69.370     -42.990
  H      -22.201     -74.829     -40.089
  H      -25.469     -68.657     -42.643
  H      -19.538     -76.086     -46.139
  H      -23.660     -71.746     -43.767
  H      -22.481     -75.243     -42.800
  H      -20.788     -73.172     -41.894
  H      -22.661     -71.666     -41.492
  H      -24.031     -74.081     -40.154
  H      -26.115     -73.055     -40.984
  H      -20.431     -72.724     -48.986
  H      -21.599     -71.671     -48.189
  H      -25.299     -71.972     -39.840
  P      -21.967     -70.761     -39.168
  C      -21.847     -71.278     -36.606
  O      -21.205     -70.777     -37.758
  O      -23.210     -69.944     -39.216
  O      -20.839     -70.270     -40.192
  H      -19.962     -70.667     -40.062
  H      -21.114     -71.351     -35.799
  H      -22.262     -72.272     -36.790
  H      -22.644     -70.597     -36.295
  H      -29.671     -71.370     -42.766
  H      -29.019     -69.753     -42.880
  H      -29.253     -70.491     -41.314

 3  4  5  6  7  8  9  10  11  12  22  25  29  30  31  32 0
 6-311+G(2d,p)
 ****
 33  36  37 0
 6-311+G(2d,p)
 ****
 1  2  13  14  15  16  17  18  19  20  21  23  24  26 0
 3-21G
 ****
 27  28  34  35  38  39  40  41  42  43  44  45  46  47  48 0
 3-21G
 ****


