%nproc=1
%NoSave
%Mem=1900MB
#P OB98/GEN NMR

erre ene a

0 1
  C      -51.525      41.442     -67.434
  O      -50.252      42.074     -67.273
  P      -49.000      41.366     -67.996
  C      -47.709      40.415     -65.944
  O      -47.769      41.403     -66.966
  C      -46.965      40.947     -64.723
  O      -47.799      41.829     -63.950
  C      -46.517      39.869     -63.745
  O      -45.330      39.224     -64.181
  C      -46.252      40.697     -62.495
  O      -44.942      41.288     -62.567
  C      -47.337      41.782     -62.578
  N      -50.232      43.586     -58.829
  C      -49.136      44.152     -59.452
  N      -48.778      45.386     -59.034
  N      -48.454      43.563     -60.398
  C      -48.945      42.345     -60.735
  C      -50.019      41.679     -60.192
  C      -50.746      42.329     -59.122
  O      -51.702      41.860     -58.515
  N      -50.218      40.466     -60.800
  C      -49.285      40.410     -61.729
  N      -48.476      41.522     -61.720
  O      -48.579      42.436     -69.110
  O      -49.316      40.034     -68.587
  H      -44.873      41.923     -61.827
  H      -48.142      41.985     -69.857
  H      -50.714      44.082     -58.101
  H      -49.153      39.596     -62.431
  H      -46.942      42.774     -62.334
  H      -46.279      40.099     -61.579
  H      -49.300      45.926     -58.363
  H      -47.326      39.154     -63.552
  H      -47.998      45.830     -59.506
  H      -46.092      41.515     -65.076
  H      -47.200      39.525     -66.320
  H      -48.728      40.113     -65.683
  P      -45.331      37.619     -64.193
  C      -43.236      37.272     -62.701
  O      -43.801      37.188     -63.994
  O      -45.638      37.268     -65.723
  O      -46.317      36.994     -63.264
  H      -46.095      36.407     -65.786
  H      -43.927      36.895     -61.942
  H      -42.978      38.311     -62.479
  H      -42.325      36.669     -62.676
  H      -52.271      42.003     -66.911
  H      -51.483      40.449     -67.038
  H      -51.774      41.401     -68.474

 3  4  5  6  7  8  9  10  11  12  23  26  30  31  33  0
 6-311+G(2d,p)
 ****
 35  36  37  38 0
 6-311+G(2d,p)
 ****
 1  2  13  14  15  16  17  18  19  20  21  22  24  25  27  28  29 0
 3-21G
 ****
 32  34  39  40  41  42  43  44  45  46  47  48  49 0
 3-21G
 ****


