%nproc=1
%NoSave
%Mem=1900MB
#P OB98/GEN NMR

erre ene a

0 1
  C        1.167    -544.886    -244.105
  O        1.989    -543.753    -243.862
  P        2.799    -543.143    -245.107
  C        1.145    -541.258    -245.815
  O        1.710    -542.539    -246.115
  C        1.438    -540.282    -246.951
  O        0.737    -540.662    -248.155
  C        1.008    -538.854    -246.663
  O        1.948    -538.145    -245.861
  C        0.969    -538.268    -248.073
  O        2.304    -537.927    -248.502
  C        0.430    -539.453    -248.890
  N       -3.154    -538.692    -252.386
  C       -1.793    -538.910    -252.547
  N       -1.318    -538.856    -253.815
  N       -0.972    -539.156    -251.559
  C       -1.594    -539.176    -250.342
  C       -2.932    -538.978    -250.069
  C       -3.821    -538.692    -251.171
  O       -5.020    -538.441    -251.093
  N       -3.179    -539.088    -248.722
  C       -2.011    -539.341    -248.196
  N       -0.997    -539.360    -249.126
  O        3.332    -544.440    -245.886
  O        3.917    -542.224    -244.737
  H        2.240    -537.778    -249.468
  H        4.054    -544.201    -246.489
  H       -3.734    -538.506    -253.188
  H       -1.829    -539.501    -247.139
  H        0.932    -539.539    -249.867
  H        0.364    -537.360    -248.139
  H       -1.878    -538.601    -254.605
  H       -0.006    -538.821    -246.236
  H       -0.317    -538.938    -253.942
  H        2.511    -540.318    -247.165
  H        1.580    -540.883    -244.886
  H        0.064    -541.371    -245.668
  P        1.352    -537.110    -244.776
  C        2.459    -538.381    -242.809
  O        1.254    -537.931    -243.399
  O       -0.185    -536.966    -245.242
  O        2.065    -535.791    -244.726
  H       -0.531    -536.095    -244.957
  H        2.255    -538.671    -241.768
  H        3.216    -537.585    -242.795
  H        2.850    -539.248    -243.343
  H        0.691    -545.183    -243.194
  H        1.769    -545.691    -244.472
  H        0.422    -544.637    -244.832

 3  4  5  6  7  8  9  10  11  12  23  26  30  31 0
 6-311+G(2d,p)
 ****
 33  35  36  37  38 0
 6-311+G(2d,p)
 ****
 1  2  13  14  15  16  17  18  19  20  21  22  24  25 0
 3-21G
 ****
 27  28  29  32  34  39  40  41  42  43  44  45  46  47  48  49 0
 3-21G
 ****


