%nproc=1
%NoSave
%Mem=1900MB
#P OB98/GEN NMR

erre ene a

0 1
  C     -514.690    -298.936    -899.230
  O     -515.661    -298.850    -898.210
  H     -515.056    -299.614    -900.000
  H     -513.761    -299.350    -898.810
  H     -514.494    -297.963    -899.680
  P     -515.525    -297.629    -897.170
  C     -513.752    -298.959    -895.840
  O     -514.981    -298.251    -895.800
  C     -513.182    -299.105    -894.410
  O     -512.897    -297.754    -893.880
  C     -514.129    -299.809    -893.430
  O     -513.341    -300.613    -892.520
  C     -514.702    -298.648    -892.620
  O     -515.171    -299.047    -891.350
  C     -513.498    -297.701    -892.590
  N     -513.735    -294.476    -888.750
  C     -513.106    -295.690    -888.840
  N     -512.490    -296.168    -887.740
  N     -513.076    -296.399    -889.950
  C     -513.731    -295.804    -890.990
  C     -514.384    -294.600    -891.020
  C     -514.416    -293.832    -889.790
  O     -514.983    -292.757    -889.630
  N     -514.951    -294.372    -892.240
  C     -514.647    -295.461    -892.950
  N     -513.911    -296.346    -892.230
  O     -517.057    -297.272    -896.840
  O     -514.779    -296.443    -897.680
  H     -514.493    -299.633    -890.930
  H     -517.354    -296.560    -897.430
  H     -513.735    -293.973    -887.870
  H     -514.973    -295.640    -893.980
  H     -512.742    -298.017    -891.830
  H     -515.531    -298.196    -893.180
  H     -512.432    -295.669    -886.860
  H     -514.881    -300.426    -893.890
  H     -511.996    -297.034    -887.820
  H     -512.206    -299.630    -894.480
  H     -513.033    -298.413    -896.450
  H     -513.914    -299.952    -896.270
  P     -512.996    -302.114    -892.960
  C     -514.899    -303.066    -891.450
  O     -513.524    -303.103    -891.800
  O     -511.396    -302.198    -892.810
  O     -513.434    -302.449    -894.360
  H     -511.034    -302.796    -893.500
  H     -515.088    -303.775    -890.672
  H     -515.492    -303.310    -892.307
  H     -515.154    -302.085    -891.108

 6  7  8  9  10  11  12  13  14  15  26  29  33  34 0
 6-311+G(2d,p)
 ****
 36  38  39  40  41 0
 6-311+G(2d,p)
 ****
 1  2  3  4  5  16  17  18  19  20  21  22  23  24  25 0
 3-21G
 ****
 27  28  30  31  32  35  37  42  43  44  45  46  47 0
 3-21G
 ****
 48  49 0
 3-21G
 ****


