%nproc=1
%NoSave
%Mem=1900MB
#P OB98/GEN NMR

erre ene a

0 1
  C      -83.505    -475.832     446.995
  O      -83.899    -474.963     445.930
  P      -85.436    -475.045     445.460
  C      -87.436    -473.848     446.631
  O      -86.171    -473.720     445.991
  C      -88.228    -472.546     446.544
  O      -87.498    -471.456     447.150
  C      -88.514    -472.080     445.117
  O      -89.609    -472.782     444.550
  C      -88.865    -470.620     445.351
  O      -90.241    -470.504     445.749
  C      -87.932    -470.232     446.515
  N      -86.118    -465.714     445.083
  C      -87.401    -466.077     445.450
  N      -88.325    -465.088     445.465
  N      -87.745    -467.297     445.779
  C      -86.711    -468.176     445.747
  C      -85.398    -467.938     445.397
  C      -85.034    -466.586     445.010
  O      -83.925    -466.218     444.648
  N      -84.637    -469.077     445.498
  C      -85.483    -469.997     445.934
  N      -86.753    -469.501     446.087
  O      -86.035    -476.198     446.396
  O      -85.612    -475.351     444.013
  H      -90.787    -470.858     445.012
  H      -86.791    -476.627     445.954
  H      -85.912    -464.760     444.837
  H      -85.222    -471.023     446.151
  H      -88.454    -469.632     447.268
  H      -88.745    -470.006     444.450
  H      -88.111    -464.116     445.293
  H      -87.611    -472.148     444.495
  H      -89.263    -465.336     445.769
  H      -89.171    -472.680     447.088
  H      -87.288    -474.117     447.682
  H      -87.986    -474.676     446.167
  P      -89.352    -474.301     444.089
  C      -89.954    -476.502     445.329
  O      -90.350    -475.193     444.971
  O      -87.902    -474.622     444.696
  O      -89.404    -474.513     442.610
  H      -87.449    -475.289     444.146
  H      -88.906    -476.529     445.645
  H      -90.096    -477.175     444.472
  H      -90.578    -476.844     446.156
  H      -82.468    -475.683     447.212
  H      -83.665    -476.849     446.703
  H      -84.087    -475.615     447.866

 3  4  5  6  7  8  9  10  11  12  23  26  30  31  33  0
 6-311+G(2d,p)
 ****
 35  36  37  38 0
 6-311+G(2d,p)
 ****
 1  2  13  14  15  16  17  18  19  20  21  22  24  25  27  28  29 0
 3-21G
 ****
 32  34  39  40  41  42  43  44  45  46  47  48  49 0
 3-21G
 ****


