%nproc=1
%NoSave
%Mem=1900MB
#P OB98/GEN NMR

erre ene a

0 1
  C      107.456    -112.803    -236.656
  O      107.399    -112.885    -235.248
  P      106.027    -113.202    -234.483
  C      105.613    -110.769    -233.732
  O      105.154    -111.850    -234.534
  C      104.440    -110.118    -232.991
  O      103.381    -109.831    -233.954
  C      103.845    -111.022    -231.894
  O      103.742    -110.411    -230.606
  C      102.530    -111.477    -232.509
  O      101.577    -111.931    -231.564
  C      102.145    -110.253    -233.348
  N      101.113    -110.559    -234.338
  C       99.805    -110.195    -234.027
  O       99.467    -109.630    -232.992
  N       98.850    -110.556    -234.935
  C       99.047    -111.331    -236.042
  O       98.132    -111.699    -236.757
  C      100.443    -111.720    -236.300
  C      101.398    -111.305    -235.462
  O      106.176    -113.785    -233.123
  O      105.245    -114.140    -235.520
  H      100.772    -112.187    -232.053
  H      105.067    -113.736    -236.387
  H       97.897    -110.298    -234.723
  H      100.629    -112.343    -237.163
  H      102.438    -111.577    -235.630
  H      101.788    -109.435    -232.723
  H      102.744    -112.324    -233.176
  H      104.484    -111.902    -231.715
  H      104.796    -109.170    -232.569
  H      106.087    -110.025    -234.380
  H      106.376    -111.126    -233.027
  P      104.087    -111.122    -229.218
  C      101.662    -111.693    -228.458
  O      102.921    -112.172    -228.893
  O      104.434    -110.208    -228.098
  O      105.330    -112.070    -229.577
  H      105.891    -112.188    -228.793
  H      101.197    -112.459    -227.826
  H      101.021    -111.517    -229.327
  H      101.761    -110.771    -227.881
  H      108.458    -112.584    -236.960
  H      106.803    -112.026    -236.995
  H      107.150    -113.736    -237.080

 3  4  5  6  7  8  9  10  11  12  13  23  28  29  30  31  32 0
 6-311+G(2d,p)
 ****
 33  34 0
 6-311+G(2d,p)
 ****
 1  2  14  15  16  17  18  19  20  21  22  24  25  26  27 0
 3-21G
 ****
 35  36  37  38  39  40  41  42  43  44  45 0
 3-21G
 ****


