%nproc=1
%NoSave
%Mem=1900MB
#P OB98/GEN NMR

erre ene a

0 1
  C      147.195    -163.326    -112.715
  O      148.491    -162.912    -112.313
  P      149.487    -163.932    -111.590
  C      149.241    -162.856    -109.278
  O      149.044    -164.035    -110.051
  C      149.272    -163.170    -107.782
  O      147.910    -163.388    -107.319
  C      150.086    -164.414    -107.403
  O      150.673    -164.152    -106.120
  C      149.019    -165.489    -107.265
  O      149.447    -166.595    -106.479
  C      147.892    -164.670    -106.650
  N      143.262    -165.357    -104.585
  C      144.362    -164.718    -104.131
  N      145.567    -164.602    -104.728
  C      145.567    -165.231    -105.918
  C      144.534    -165.951    -106.496
  C      143.325    -165.989    -105.784
  N      142.180    -166.603    -106.246
  N      144.944    -166.497    -107.702
  C      146.195    -166.115    -107.841
  N      146.594    -165.295    -106.822
  O      150.941    -163.662    -111.802
  O      149.075    -165.365    -112.184
  H      148.788    -167.312    -106.572
  H      149.751    -165.664    -112.821
  H      144.263    -164.231    -103.164
  H      146.854    -166.402    -108.648
  H      148.042    -164.496    -105.577
  H      148.745    -165.866    -108.259
  H      150.857    -164.678    -108.135
  H      149.653    -162.285    -107.256
  H      148.410    -162.173    -109.488
  H      141.331    -166.457    -105.718
  H      142.116    -166.846    -107.232
  H      150.175    -162.369    -109.580
  P      152.260    -163.967    -105.989
  C      152.522    -166.278    -104.914
  O      152.891    -165.442    -105.996
  O      152.708    -163.084    -104.871
  O      152.689    -163.380    -107.417
  H      153.575    -162.976    -107.351
  H      153.130    -166.031    -104.041
  H      152.704    -167.318    -105.190
  H      151.465    -166.156    -104.664
  H      146.686    -162.506    -113.177
  H      146.643    -163.652    -111.858
  H      147.279    -164.133    -113.413

 3  4  5  6  7  8  9  10  11  12  22  25  29  30  31  32 0
 6-311+G(2d,p)
 ****
 33  36  37 0
 6-311+G(2d,p)
 ****
 1  2  13  14  15  16  17  18  19  20  21  23  24  26 0
 3-21G
 ****
 27  28  34  35  38  39  40  41  42  43  44  45  46  47  48 0
 3-21G
 ****


