%nproc=1
%NoSave
%Mem=1900MB
#P OB98/GEN NMR

erre ene a

0 1
  C     -362.071    -740.913    -892.760
  O     -362.763    -740.649    -893.950
  H     -362.748    -741.406    -892.050
  H     -361.729    -739.964    -892.310
  H     -361.214    -741.573    -892.930
  P     -361.943    -740.087    -895.220
  C     -360.449    -738.036    -895.640
  O     -361.474    -738.607    -894.850
  C     -360.601    -736.503    -895.660
  O     -360.671    -736.023    -894.290
  C     -359.402    -735.764    -896.280
  O     -359.416    -735.859    -897.690
  C     -359.609    -734.368    -895.720
  O     -360.581    -733.658    -896.490
  C     -360.124    -734.673    -894.300
  N     -359.112    -734.513    -893.270
  C     -358.541    -733.260    -893.120
  O     -358.886    -732.280    -893.800
  N     -357.543    -733.164    -892.200
  C     -356.952    -734.201    -891.540
  O     -355.904    -734.111    -890.920
  C     -357.629    -735.497    -891.690
  C     -358.658    -735.609    -892.530
  O     -362.624    -740.216    -896.550
  O     -360.571    -740.925    -895.170
  H     -360.604    -741.632    -895.860
  H     -360.148    -733.460    -897.340
  H     -357.095    -732.243    -892.120
  H     -357.246    -736.338    -891.110
  H     -359.117    -736.568    -892.670
  H     -360.978    -733.995    -894.050
  H     -358.683    -733.800    -895.720
  H     -358.462    -736.197    -895.880
  H     -361.527    -736.246    -896.170
  H     -360.554    -738.408    -896.680
  H     -359.475    -738.326    -895.260
  P     -358.041    -736.014    -898.520
  C     -355.772    -734.821    -898.680
  O     -357.017    -734.909    -897.970
  O     -358.192    -736.068    -900.000
  O     -357.429    -737.396    -897.930
  H     -357.150    -737.951    -898.700
  H     -355.163    -734.060    -898.239
  H     -355.962    -734.577    -899.704
  H     -355.263    -735.761    -898.626

 6  7  8  9  10  11  12  13  14  15  16  27  31  32  33  34  35 0
 6-311+G(2d,p)
 ****
 36  37 0
 6-311+G(2d,p)
 ****
 1  2  3  4  5  17  18  19  20  21  22  23  24  25 0
 3-21G
 ****
 26  28  29  30  38  39  40  41  42  43  44  45 0
 3-21G
 ****


