%nproc=1
%NoSave
%Mem=1900MB
#P OB98/GEN NMR

erre ene a

0 1
  C      171.484    -162.913     -40.571
  O      170.792    -162.377     -39.465
  H      172.523    -163.089     -40.276
  H      171.478    -162.213     -41.409
  H      171.041    -163.865     -40.874
  P      169.290    -161.843     -39.672
  C      168.983    -164.343     -39.180
  O      168.349    -163.068     -39.206
  C      168.482    -165.193     -38.011
  O      168.948    -164.623     -36.760
  C      166.954    -165.300     -37.931
  O      166.585    -166.665     -37.716
  C      166.599    -164.456     -36.713
  O      165.354    -164.842     -36.139
  C      167.841    -164.662     -35.839
  N      167.972    -163.658     -34.790
  C      167.712    -164.082     -33.482
  O      167.357    -165.242     -33.268
  N      167.824    -163.178     -32.458
  C      168.114    -161.943     -32.720
  N      168.200    -161.093     -31.659
  C      168.352    -161.438     -34.088
  C      168.270    -162.343     -35.064
  O      168.998    -161.312     -41.035
  O      169.082    -160.768     -38.507
  H      165.236    -164.349     -35.295
  H      168.329    -160.172     -38.741
  H      168.580    -160.397     -34.256
  H      168.438    -162.066     -36.102
  H      167.825    -165.654     -35.369
  H      166.524    -163.403     -37.009
  H      166.449    -164.941     -38.824
  H      168.947    -166.184     -38.085
  H      168.032    -161.478     -30.738
  H      170.065    -164.194     -39.109
  H      168.412    -160.109     -31.744
  H      168.751    -164.859     -40.120
  P      166.025    -167.454     -38.999
  C      168.055    -168.427     -40.281
  O      167.041    -168.658     -39.316
  O      166.268    -166.421     -40.195
  O      164.590    -167.844     -38.883
  H      165.438    -165.963     -40.419
  H      168.652    -169.308     -40.389
  H      168.673    -167.614     -39.961
  H      167.604    -168.184     -41.221

 6  7  8  9  10  11  12  13  14  15  16  26  30  31  32  33  35 0
 6-311+G(2d,p)
 ****
 37  38 0
 6-311+G(2d,p)
 ****
 1  2  3  4  5  17  18  19  20  21  22  23  24  25 0
 3-21G
 ****
 27  28  29  34  36  39  40  41  42  43  44  45  46 0
 3-21G
 ****


