%nproc=1
%NoSave
%Mem=1900MB
#P OB98/GEN NMR

erre ene a

0 1
  C     -126.749     -39.457     -35.432
  O     -125.609     -39.635     -36.246
  H     -126.491     -38.777     -34.615
  H     -127.070     -40.410     -35.006
  H     -127.565     -39.012     -36.009
  P     -125.700     -40.645     -37.486
  C     -125.183     -43.149     -37.834
  O     -125.489     -42.122     -36.897
  C     -123.983     -43.969     -37.346
  O     -122.804     -43.136     -37.461
  C     -124.126     -44.402     -35.879
  O     -123.950     -45.805     -35.690
  C     -123.176     -43.466     -35.143
  O     -122.669     -43.976     -33.927
  C     -122.110     -43.154     -36.200
  N     -121.409     -41.891     -35.979
  C     -120.726     -41.744     -34.775
  O     -120.646     -42.599     -33.896
  N     -120.097     -40.538     -34.597
  C     -120.091     -39.496     -35.474
  O     -119.504     -38.443     -35.262
  C     -120.849     -39.704     -36.717
  C     -121.465     -40.874     -36.909
  O     -124.838     -40.311     -38.656
  O     -127.252     -40.634     -37.880
  H     -122.130     -44.766     -34.137
  H     -127.384     -40.082     -38.673
  H     -119.589     -40.424     -33.734
  H     -120.874     -38.894     -37.432
  H     -122.031     -41.062     -37.816
  H     -121.362     -43.947     -36.235
  H     -123.720     -42.545     -34.902
  H     -125.146     -44.227     -35.518
  H     -123.848     -44.828     -38.011
  H     -124.952     -42.673     -38.792
  H     -126.052     -43.803     -37.961
  P     -125.122     -46.828     -35.333
  C     -126.098     -47.835     -33.119
  O     -125.313     -46.831     -33.745
  O     -125.047     -48.154     -36.009
  O     -126.445     -46.079     -35.875
  H     -127.060     -46.780     -36.171
  H     -126.108     -47.672     -32.062
  H     -125.679     -48.797     -33.327
  H     -127.098     -47.792     -33.496

 6  7  8  9  10  11  12  13  14  15  16  26  31  32  33  34  35 0
 6-311+G(2d,p)
 ****
 36  37 0
 6-311+G(2d,p)
 ****
 1  2  3  4  5  17  18  19  20  21  22  23  24  25 0
 3-21G
 ****
 27  28  29  30  38  39  40  41  42  43  44  45 0
 3-21G
 ****


