%nproc=1
%NoSave
%Mem=1900MB
#P OB98/GEN NMR

erre ene a

0 1
  C       47.055     192.174    -365.769
  O       47.576     191.174    -364.913
  P       46.689     190.750    -363.643
  C       45.715     188.563    -364.660
  O       45.466     189.900    -364.233
  C       45.063     187.568    -363.699
  O       45.617     187.726    -362.380
  C       43.565     187.745    -363.545
  O       42.881     187.205    -364.650
  C       43.314     187.008    -362.232
  O       43.102     185.605    -362.468
  C       44.624     187.248    -361.449
  N       44.446     188.173    -360.338
  C       43.515     187.777    -359.364
  O       42.891     186.722    -359.493
  N       43.287     188.619    -358.300
  C       43.931     189.739    -358.215
  N       43.667     190.526    -357.136
  C       44.899     190.197    -359.226
  C       45.106     189.373    -360.255
  O       46.009     192.128    -363.201
  O       47.457     190.111    -362.532
  H       42.953     185.210    -361.580
  H       45.788     192.118    -362.253
  H       45.409     191.148    -359.111
  H       45.801     189.632    -361.047
  H       45.003     186.300    -361.044
  H       42.417     187.379    -361.724
  H       43.321     188.812    -363.420
  H       45.300     186.550    -364.048
  H       42.993     190.191    -356.462
  H       46.798     188.382    -364.676
  H       44.126     191.409    -356.971
  H       45.324     188.432    -365.675
  P       41.420     187.777    -364.980
  C       42.184     189.473    -366.738
  O       41.664     189.295    -365.440
  O       40.800     187.970    -363.513
  O       40.545     186.951    -365.860
  H       39.859     188.224    -363.581
  H       42.156     190.541    -366.980
  H       41.583     188.937    -367.472
  H       43.226     189.141    -366.782
  H       47.745     192.356    -366.567
  H       46.906     193.077    -365.214
  H       46.120     191.846    -366.174

 3  4  5  6  7  8  9  10  11  12  13  21  23  27  28  29  30  32 0
 6-311+G(2d,p)
 ****
 34  35 0
 6-311+G(2d,p)
 ****
 1  2  14  15  16  17  18  19  20  22  24  25  26 0
 3-21G
 ****
 31  33  36  37  38  39  40  41  42  43  44  45  46 0
 3-21G
 ****


