%nproc=1
%NoSave
%Mem=1900MB
#P OB98/GEN NMR

erre ene a

0 1
  C       49.210     141.598    -353.434
  O       50.574     141.346    -353.780
  P       51.565     142.609    -353.697
  C       51.590     142.954    -356.271
  O       51.299     143.519    -354.999
  C       52.120     144.021    -357.236
  O       51.124     145.066    -357.449
  C       53.404     144.711    -356.747
  O       54.191     144.990    -357.909
  C       52.859     145.997    -356.140
  O       53.854     146.991    -355.939
  C       51.774     146.326    -357.165
  N       50.417     151.243    -357.402
  C       51.437     150.554    -357.973
  N       51.735     149.242    -357.857
  C       50.840     148.631    -357.060
  C       49.756     149.192    -356.407
  C       49.554     150.572    -356.608
  N       48.533     151.281    -356.015
  N       49.082     148.235    -355.656
  C       49.808     147.140    -355.800
  N       50.824     147.307    -356.700
  O       53.007     141.972    -353.963
  O       51.491     143.344    -352.398
  H       54.241     147.255    -356.801
  H       53.479     141.837    -353.120
  H       52.104     151.141    -358.603
  H       49.638     146.204    -355.283
  H       52.196     146.699    -358.104
  H       52.415     145.781    -355.162
  H       53.990     144.107    -356.049
  H       52.302     143.544    -358.209
  H       50.690     142.506    -356.697
  H       48.470     152.269    -356.217
  H       47.875     150.822    -355.403
  H       52.311     142.138    -356.144
  P       55.196     143.858    -358.451
  C       57.049     144.566    -356.819
  O       56.155     143.538    -357.201
  O       56.169     144.746    -359.370
  O       54.572     142.701    -359.162
  H       56.491     145.529    -358.887
  H       57.579     144.250    -355.919
  H       56.501     145.486    -356.607
  H       57.783     144.741    -357.618
  H       48.646     140.693    -353.524
  H       48.806     142.338    -354.093
  H       49.157     141.952    -352.426

 3  4  5  6  7  8  9  10  11  12  22  25  29  30  31  32 0
 6-311+G(2d,p)
 ****
 33  36  37 0
 6-311+G(2d,p)
 ****
 1  2  13  14  15  16  17  18  19  20  21  23  24  26 0
 3-21G
 ****
 27  28  34  35  38  39  40  41  42  43  44  45  46  47  48 0
 3-21G
 ****


