%nproc=1
%NoSave
%Mem=1900MB
#P OB98/GEN NMR

erre ene a

0 1
  C     -271.891    -274.744     449.396
  O     -272.857    -274.407     448.401
  P     -274.248    -275.194     448.349
  C     -276.613    -275.025     449.387
  O     -275.302    -274.475     449.320
  C     -277.321    -274.540     450.656
  O     -276.678    -275.049     451.851
  C     -277.282    -273.025     450.815
  O     -278.052    -272.268     449.904
  C     -277.577    -272.846     452.296
  O     -278.976    -272.886     452.561
  C     -276.871    -274.082     452.901
  N     -275.604    -273.743     453.553
  C     -275.015    -274.751     454.313
  O     -275.529    -275.856     454.482
  N     -273.824    -274.431     454.905
  C     -273.196    -273.221     454.844
  O     -272.141    -272.982     455.418
  C     -273.877    -272.190     454.049
  C     -275.032    -272.491     453.449
  O     -274.161    -276.675     448.493
  O     -274.815    -274.815     446.892
  H     -279.091    -272.892     453.532
  H     -275.215    -275.619     446.508
  H     -273.382    -275.151     455.455
  H     -273.411    -271.215     453.980
  H     -275.547    -271.745     452.854
  H     -277.516    -274.558     453.655
  H     -277.209    -271.884     452.667
  H     -276.240    -272.698     450.662
  H     -278.343    -274.913     450.648
  H     -276.558    -276.114     449.378
  H     -277.167    -274.735     448.489
  P     -277.409    -271.322     448.780
  C     -276.904    -271.516     446.245
  O     -277.185    -272.191     447.449
  O     -276.300    -270.416     449.199
  O     -278.676    -270.418     448.368
  H     -278.352    -269.529     448.124
  H     -276.798    -272.259     445.447
  H     -275.970    -270.953     446.325
  H     -277.726    -270.840     445.984
  H     -271.029    -274.121     449.281
  H     -271.607    -275.770     449.285
  H     -272.313    -274.594     450.368

 3  4  5  6  7  8  9  10  11  12  13  23  28  29  30  31  32 0
 6-311+G(2d,p)
 ****
 33  34 0
 6-311+G(2d,p)
 ****
 1  2  14  15  16  17  18  19  20  21  22  24  25  26  27 0
 3-21G
 ****
 35  36  37  38  39  40  41  42  43  44  45 0
 3-21G
 ****


