%nproc=1
%NoSave
%Mem=1900MB
#P OB98/GEN NMR

erre ene a

0 1
  C       91.851    -213.949      21.513
  O       92.927    -214.708      22.076
  P       93.248    -214.416      23.624
  C       93.837    -216.869      24.223
  O       94.295    -215.527      24.129
  C       94.994    -217.812      24.555
  O       95.782    -218.107      23.365
  C       95.960    -217.263      25.630
  O       96.404    -218.398      26.415
  C       97.093    -216.720      24.781
  O       98.289    -216.476      25.502
  C       97.160    -217.807      23.704
  N       99.390    -219.491      19.421
  C       98.736    -220.141      20.413
  N       98.167    -219.613      21.523
  C       98.341    -218.274      21.566
  C       98.994    -217.484      20.627
  C       99.546    -218.143      19.510
  N      100.237    -217.503      18.522
  N       98.983    -216.152      21.034
  C       98.387    -216.170      22.216
  N       97.909    -217.418      22.537
  O       91.887    -214.798      24.381
  O       93.666    -212.994      23.892
  H       98.948    -216.060      24.900
  H       91.358    -213.996      24.566
  H       98.644    -221.211      20.292
  H       98.280    -215.316      22.872
  H       97.622    -218.725      24.084
  H       96.785    -215.760      24.334
  H       95.508    -216.523      26.299
  H       94.564    -218.769      24.894
  H       93.372    -217.172      23.286
  H      100.603    -218.059      17.762
  H      100.384    -216.501      18.550
  H       93.038    -216.918      24.990
  P       96.542    -218.224      27.999
  C       95.132    -220.342      28.380
  O       96.396    -219.725      28.573
  O       95.092    -217.614      28.348
  O       97.689    -217.410      28.483
  H       94.374    -218.142      27.949
  H       95.204    -221.373      28.729
  H       94.878    -220.351      27.312
  H       94.358    -219.806      28.946
  H       91.723    -214.219      20.486
  H       92.077    -212.905      21.582
  H       90.949    -214.155      22.051

 3  4  5  6  7  8  9  10  11  12  22  25  29  30  31  32 0
 6-311+G(2d,p)
 ****
 33  36  37 0
 6-311+G(2d,p)
 ****
 1  2  13  14  15  16  17  18  19  20  21  23  24  26 0
 3-21G
 ****
 27  28  34  35  38  39  40  41  42  43  44  45  46  47  48 0
 3-21G
 ****


