%nproc=1
%NoSave
%Mem=1900MB
#P OB98/GEN NMR

erre ene a

0 1
  C     -116.134    -146.768    -352.857
  O     -117.453    -147.046    -353.315
  P     -118.585    -147.310    -352.205
  C     -118.655    -149.746    -353.099
  O     -118.589    -148.897    -351.959
  C     -117.771    -150.976    -352.903
  O     -116.444    -150.576    -352.497
  C     -118.255    -151.940    -351.827
  O     -119.269    -152.809    -352.303
  C     -116.983    -152.716    -351.539
  O     -116.776    -153.711    -352.559
  C     -115.908    -151.623    -351.643
  N     -114.248    -152.717    -346.932
  C     -114.592    -153.506    -347.970
  N     -115.036    -153.141    -349.193
  C     -115.153    -151.801    -349.277
  C     -114.874    -150.874    -348.284
  C     -114.388    -151.374    -347.064
  N     -114.010    -150.565    -346.013
  N     -115.114    -149.596    -348.737
  C     -115.517    -149.748    -349.981
  N     -115.550    -151.062    -350.354
  O     -119.946    -147.055    -353.009
  O     -118.484    -146.454    -350.987
  H     -115.861    -154.045    -352.451
  H     -120.665    -146.826    -352.389
  H     -114.489    -154.574    -347.806
  H     -115.794    -148.934    -350.646
  H     -114.989    -151.987    -352.116
  H     -117.011    -153.241    -350.577
  H     -118.568    -151.399    -350.921
  H     -117.688    -151.492    -353.869
  H     -118.309    -149.196    -353.979
  H     -113.505    -150.983    -345.249
  H     -113.931    -149.568    -346.188
  H     -119.699    -150.049    -353.259
  P     -120.706    -152.712    -351.583
  C     -120.543    -155.288    -351.246
  O     -120.801    -154.024    -350.662
  O     -121.728    -153.002    -352.775
  O     -120.963    -151.409    -350.905
  H     -122.594    -152.590    -352.588
  H     -120.347    -156.009    -350.445
  H     -119.669    -155.249    -351.902
  H     -121.419    -155.621    -351.812
  H     -115.490    -146.614    -353.697
  H     -115.776    -147.594    -352.279
  H     -116.145    -145.887    -352.250

 3  4  5  6  7  8  9  10  11  12  22  25  29  30  31  32 0
 6-311+G(2d,p)
 ****
 33  36  37 0
 6-311+G(2d,p)
 ****
 1  2  13  14  15  16  17  18  19  20  21  23  24  26 0
 3-21G
 ****
 27  28  34  35  38  39  40  41  42  43  44  45  46  47  48 0
 3-21G
 ****


