%nproc=1
%NoSave
%Mem=1900MB
#P OB98/GEN NMR

erre ene a

0 1
  C     -494.666    -608.924     392.689
  O     -494.842    -609.629     391.478
  H     -494.947    -607.879     392.530
  H     -493.621    -608.958     393.007
  H     -495.305    -609.340     393.474
  P     -494.490    -611.193     391.454
  C     -493.152    -610.938     389.262
  O     -494.248    -611.565     389.914
  C     -493.162    -611.281     387.775
  O     -493.108    -612.709     387.587
  C     -494.410    -610.793     387.036
  O     -494.288    -609.415     386.707
  C     -494.380    -611.702     385.817
  O     -493.381    -611.238     384.887
  C     -493.944    -613.037     386.442
  N     -497.571    -616.288     385.029
  C     -496.670    -615.572     384.259
  N     -496.787    -615.713     382.921
  N     -495.759    -614.780     384.758
  C     -495.811    -614.684     386.105
  C     -496.665    -615.333     386.972
  C     -497.633    -616.249     386.412
  O     -498.431    -616.919     387.063
  N     -496.457    -614.933     388.272
  C     -495.456    -614.079     388.189
  N     -495.040    -613.882     386.897
  O     -495.458    -612.101     392.153
  O     -493.025    -611.271     392.090
  H     -493.577    -610.298     384.719
  H     -493.067    -611.427     393.050
  H     -498.262    -616.870     384.582
  H     -494.997    -613.583     389.034
  H     -493.336    -613.640     385.756
  H     -495.330    -611.738     385.287
  H     -497.632    -616.072     382.492
  H     -495.322    -610.999     387.600
  H     -496.171    -615.160     382.339
  H     -492.252    -610.861     387.325
  H     -492.235    -611.302     389.734
  H     -493.205    -609.853     389.389
  P     -495.269    -608.323     387.351
  C     -496.526    -607.871     385.140
  O     -495.657    -607.354     386.137
  O     -494.733    -607.631     388.557
  O     -496.633    -609.113     387.610
  H     -496.669    -609.557     388.496
  H     -496.700    -607.123     384.395
  H     -497.457    -608.151     385.588
  H     -496.077    -608.729     384.685

 6  7  8  9  10  11  12  13  14  15  26  29  33  34 0
 6-311+G(2d,p)
 ****
 36  38  39  40  41 0
 6-311+G(2d,p)
 ****
 1  2  3  4  5  16  17  18  19  20  21  22  23  24  25 0
 3-21G
 ****
 27  28  30  31  32  35  37  42  43  44  45  46  47 0
 3-21G
 ****
 48  49 0
 3-21G
 ****


