%nproc=1
%NoSave
%Mem=1900MB
#P OB98/GEN NMR

erre ene a

0 1
  C     -899.160     154.725     323.379
  O     -898.050     154.113     324.017
  H     -900.000     154.038     323.412
  H     -898.920     154.939     322.335
  H     -899.440     155.649     323.892
  P     -896.700     154.954     324.199
  C     -896.010     152.766     325.349
  O     -895.560     153.906     324.638
  C     -894.870     152.178     326.195
  O     -893.800     151.749     325.309
  C     -894.270     153.182     327.200
  O     -893.950     152.479     328.396
  C     -893.000     153.642     326.513
  O     -892.010     154.080     327.450
  C     -892.590     152.391     325.735
  N     -887.920     152.049     323.832
  C     -888.450     151.528     324.996
  N     -887.610     150.831     325.786
  N     -889.700     151.681     325.359
  C     -890.430     152.385     324.466
  C     -890.020     152.956     323.279
  C     -888.640     152.798     322.900
  O     -888.120     153.248     321.882
  N     -891.060     153.623     322.665
  C     -892.090     153.456     323.475
  N     -891.760     152.723     324.588
  O     -896.800     156.157     325.078
  O     -896.280     155.343     322.704
  H     -891.540     153.286     327.759
  H     -896.540     156.265     322.503
  H     -886.950     151.914     323.608
  H     -893.090     153.843     323.315
  H     -892.020     151.687     326.346
  H     -893.230     154.472     325.833
  H     -886.640     150.661     325.563
  H     -894.950     154.013     327.425
  H     -887.980     150.418     326.638
  H     -895.240     151.287     326.708
  H     -896.350     152.014     324.620
  H     -896.850     153.040     325.995
  P     -895.000     152.478     329.602
  C     -894.330     150.376     330.940
  O     -894.310     151.801     330.875
  O     -896.370     151.952     329.267
  O     -895.060     154.027     330.020
  H     -895.960     154.222     330.365
  H     -893.839     150.053     331.834
  H     -893.822     149.973     330.089
  H     -895.344     150.033     330.946

 6  7  8  9  10  11  12  13  14  15  26  29  33  34 0
 6-311+G(2d,p)
 ****
 36  38  39  40  41 0
 6-311+G(2d,p)
 ****
 1  2  3  4  5  16  17  18  19  20  21  22  23  24  25 0
 3-21G
 ****
 27  28  30  31  32  35  37  42  43  44  45  46  47 0
 3-21G
 ****
 48  49 0
 3-21G
 ****


