%nproc=1
%NoSave
%Mem=1900MB
#P OB98/GEN NMR

erre ene a

0 1
  C     -129.933      38.116    -266.324
  O     -130.202      37.688    -265.005
  H     -129.168      37.463    -266.752
  H     -129.553      39.141    -266.320
  H     -130.831      38.055    -266.943
  P     -131.387      38.395    -264.189
  C     -131.511      39.919    -262.115
  O     -130.699      39.430    -263.176
  C     -130.632      40.551    -261.038
  O     -129.825      39.542    -260.393
  C     -129.652      41.588    -261.571
  O     -130.315      42.802    -261.871
  C     -128.663      41.656    -260.418
  O     -129.172      42.467    -259.349
  C     -128.589      40.172    -259.985
  N     -127.430      39.474    -260.544
  C     -126.264      39.518    -259.786
  O     -126.182      40.104    -258.710
  N     -125.173      38.897    -260.336
  C     -125.118      38.335    -261.579
  O     -124.071      37.988    -262.116
  C     -126.396      38.251    -262.298
  C     -127.475      38.829    -261.765
  O     -132.387      37.476    -263.572
  O     -132.068      39.357    -265.274
  H     -132.883      38.939    -265.609
  H     -130.117      42.237    -259.252
  H     -124.310      38.964    -259.816
  H     -126.408      37.755    -263.263
  H     -128.422      38.808    -262.294
  H     -128.540      40.095    -258.891
  H     -127.704      42.085    -260.715
  H     -129.135      41.198    -262.457
  H     -131.289      40.993    -260.277
  H     -132.065      39.079    -261.684
  H     -132.222      40.649    -262.514
  P     -130.060      43.565    -263.253
  C     -128.303      45.167    -264.210
  O     -128.590      44.204    -263.204
  O     -131.136      44.517    -263.657
  O     -129.905      42.388    -264.329
  H     -130.525      42.548    -265.069
  H     -127.303      45.526    -264.085
  H     -128.988      45.984    -264.127
  H     -128.402      44.715    -265.175

 6  7  8  9  10  11  12  13  14  15  16  27  31  32  33  34  35 0
 6-311+G(2d,p)
 ****
 36  37 0
 6-311+G(2d,p)
 ****
 1  2  3  4  5  17  18  19  20  21  22  23  24  25 0
 3-21G
 ****
 26  28  29  30  38  39  40  41  42  43  44  45 0
 3-21G
 ****


