%nproc=1
%NoSave
%Mem=1900MB
#P OB98/GEN NMR

erre ene a

0 1
  C      493.765     -51.905     689.047
  O      492.917     -52.723     688.266
  P      491.369     -52.350     688.080
  C      491.574     -53.811     685.956
  O      490.783     -53.479     687.100
  C      491.011     -55.045     685.248
  O      489.681     -54.788     684.761
  C      491.819     -55.480     684.032
  O      493.000     -56.160     684.435
  C      490.805     -56.335     683.295
  O      490.755     -57.675     683.838
  C      489.477     -55.596     683.569
  N      489.048     -54.791     682.439
  C      488.521     -55.503     681.351
  O      488.470     -56.735     681.386
  N      488.108     -54.808     680.239
  C      488.236     -53.515     680.207
  N      487.820     -52.883     679.083
  C      488.822     -52.731     681.317
  C      489.204     -53.427     682.383
  O      491.097     -50.937     687.667
  O      490.729     -52.739     689.499
  H      491.609     -58.088     683.618
  H      490.962     -52.082     690.191
  H      488.913     -51.659     681.238
  H      489.647     -52.928     683.240
  H      488.682     -56.305     683.815
  H      491.039     -56.433     682.227
  H      492.073     -54.608     683.417
  H      490.955     -55.864     685.978
  H      487.452     -53.466     678.329
  H      492.587     -54.020     686.290
  H      487.905     -51.885     678.934
  H      491.605     -52.954     685.282
  P      494.337     -56.014     683.586
  C      495.504     -57.236     685.515
  O      495.378     -57.115     684.111
  O      494.879     -54.628     683.475
  O      493.938     -56.580     682.140
  H      494.288     -55.988     681.461
  H      495.962     -58.204     685.752
  H      494.523     -57.181     686.005
  H      496.145     -56.439     685.896
  H      494.753     -52.316     689.051
  H      493.393     -51.861     690.049
  H      493.791     -50.919     688.632

 3  4  5  6  7  8  9  10  11  12  13  23  27  28  29  30  32 0
 6-311+G(2d,p)
 ****
 34  35 0
 6-311+G(2d,p)
 ****
 1  2  14  15  16  17  18  19  20  21  22  24  25  26 0
 3-21G
 ****
 31  33  36  37  38  39  40  41  42  43  44  45  46 0
 3-21G
 ****


