%nproc=1
%NoSave
%Mem=1900MB
#P OB98/GEN NMR

erre ene a

0 1
  C      895.387     745.952     126.609
  O      896.334     746.454     125.689
  P      897.605     747.235     126.274
  C      897.744     748.348     123.906
  O      897.848     748.508     125.330
  C      897.378     749.672     123.253
  O      895.970     749.943     123.443
  C      898.099     750.888     123.803
  O      899.443     750.957     123.343
  C      897.203     752.013     123.314
  O      897.470     752.287     121.933
  C      895.808     751.390     123.448
  N      893.809     755.332     126.072
  C      894.441     755.270     124.881
  N      894.954     754.194     124.248
  C      894.766     753.092     125.007
  C      894.180     752.999     126.253
  C      893.665     754.190     126.776
  N      893.012     754.260     128.012
  N      894.173     751.708     126.714
  C      894.770     750.998     125.764
  N      895.147     751.800     124.700
  O      898.840     746.259     125.893
  O      897.564     747.528     127.753
  H      897.561     751.417     121.486
  H      899.536     746.281     126.585
  H      894.527     756.221     124.326
  H      894.950     749.937     125.773
  H      895.131     751.653     122.637
  H      897.341     752.948     123.865
  H      898.081     750.863     124.930
  H      897.553     749.581     122.167
  H      896.973     747.603     123.694
  H      892.829     755.162     128.388
  H      893.024     753.424     128.593
  H      898.691     747.967     123.535
  P      900.520     751.728     124.254
  C      902.062     751.267     122.255
  O      901.614     752.233     123.200
  O      901.268     750.519     124.995
  O      899.935     752.791     125.146
  H      901.530     749.821     124.369
  H      902.772     751.741     121.550
  H      901.214     750.878     121.669
  H      902.574     750.453     122.749
  H      894.600     745.459     126.078
  H      894.980     746.761     127.179
  H      895.864     745.256     127.268

 3  4  5  6  7  8  9  10  11  12  22  25  29  30  31  32 0
 6-311+G(2d,p)
 ****
 33  36  37 0
 6-311+G(2d,p)
 ****
 1  2  13  14  15  16  17  18  19  20  21  23  24  26 0
 3-21G
 ****
 27  28  34  35  38  39  40  41  42  43  44  45  46  47  48 0
 3-21G
 ****


