%nproc=1
%NoSave
%Mem=1900MB
#P OB98/GEN NMR

erre ene a

0 1
  C      336.865     544.485     271.630
  O      337.366     543.442     272.474
  P      338.442     542.432     271.840
  C      337.461     540.131     272.568
  O      337.708     541.048     271.504
  C      337.326     538.709     272.015
  O      336.275     538.628     271.034
  C      338.570     538.226     271.292
  O      339.567     537.831     272.227
  C      338.030     537.077     270.448
  O      338.081     535.822     271.155
  C      336.565     537.504     270.189
  N      336.308     537.813     268.794
  C      336.672     536.830     267.871
  O      337.192     535.776     268.253
  N      336.453     537.061     266.540
  C      335.947     538.199     266.158
  N      335.753     538.378     264.818
  C      335.576     539.274     267.093
  C      335.781     539.025     268.385
  O      339.376     542.066     273.085
  O      339.231     543.020     270.712
  H      337.514     535.212     270.642
  H      340.291     541.913     272.787
  H      335.161     540.206     266.730
  H      335.542     539.755     269.147
  H      335.880     536.700     270.490
  H      338.613     536.949     269.533
  H      338.957     539.020     270.643
  H      337.088     538.030     272.848
  H      336.025     537.616     264.208
  H      336.553     540.411     273.107
  H      335.373     539.221     264.416
  H      338.282     540.196     273.288
  P      340.904     538.701     272.307
  C      342.154     537.551     270.379
  O      341.480     538.719     270.806
  O      341.916     537.693     273.037
  O      340.826     540.017     273.003
  H      342.756     538.147     273.230
  H      342.308     537.606     269.295
  H      341.562     536.662     270.595
  H      343.130     537.488     270.871
  H      336.162     545.079     272.176
  H      336.382     544.054     270.778
  H      337.677     545.102     271.305

 3  4  5  6  7  8  9  10  11  12  13  21  23  27  28  29  30  32 0
 6-311+G(2d,p)
 ****
 34  35 0
 6-311+G(2d,p)
 ****
 1  2  14  15  16  17  18  19  20  22  24  25  26 0
 3-21G
 ****
 31  33  36  37  38  39  40  41  42  43  44  45  46 0
 3-21G
 ****


