%nproc=1
%NoSave
%Mem=1900MB
#P OB98/GEN NMR

erre ene a

0 1
  C     -232.056     133.709     487.371
  O     -232.991     133.086     488.237
  P     -234.222     133.960     488.774
  C     -233.218     135.502     490.630
  O     -233.920     134.312     490.303
  C     -233.116     135.647     492.148
  O     -234.401     135.956     492.725
  C     -232.659     134.377     492.855
  O     -231.249     134.195     492.744
  C     -233.130     134.622     494.280
  O     -232.180     135.422     495.002
  C     -234.444     135.393     494.046
  N     -235.623     134.571     494.253
  C     -235.936     134.254     495.575
  O     -235.248     134.629     496.525
  N     -237.041     133.478     495.761
  C     -237.824     132.940     494.785
  O     -238.766     132.193     495.016
  C     -237.431     133.266     493.408
  C     -236.371     134.056     493.209
  O     -235.435     132.925     488.845
  O     -234.552     135.154     487.936
  H     -231.293     135.058     494.811
  H     -236.274     133.372     488.613
  H     -237.293     133.258     496.721
  H     -238.027     132.853     492.598
  H     -236.052     134.303     492.188
  H     -234.498     136.254     494.730
  H     -233.250     133.685     494.841
  H     -233.186     133.502     492.441
  H     -232.426     136.472     492.375
  H     -233.760     136.368     490.213
  H     -232.222     135.470     490.178
  P     -230.729     132.709     492.397
  C     -231.264     131.833     494.799
  O     -230.290     132.086     493.803
  O     -229.353     133.055     491.639
  O     -231.698     131.928     491.573
  H     -228.927     133.865     491.998
  H     -232.222     131.525     494.361
  H     -231.416     132.744     495.384
  H     -230.914     131.049     495.448
  H     -231.298     133.005     487.099
  H     -231.607     134.542     487.871
  H     -232.558     134.050     486.490

 3  4  5  6  7  8  9  10  11  12  13  23  28  29  30  31  32 0
 6-311+G(2d,p)
 ****
 33  34 0
 6-311+G(2d,p)
 ****
 1  2  14  15  16  17  18  19  20  21  22  24  25  26 0
 3-21G
 ****
 27  35  36  37  38  39  40  41  42  43  44  45 0
 3-21G
 ****


