%nproc=1
%NoSave
%Mem=1900MB
#P OB98/GEN NMR

erre ene a

0 1
  C      246.337    -845.315     -93.594
  O      247.427    -845.860     -94.352
  P      247.383    -847.418     -94.733
  C      248.190    -847.030     -97.174
  O      248.428    -847.671     -95.930
  C      248.987    -847.723     -98.291
  O      250.409    -847.509     -98.139
  C      248.805    -849.236     -98.319
  O      247.618    -849.606     -99.007
  C      250.021    -849.666     -99.109
  O      249.783    -849.472    -100.522
  C      251.097    -848.705     -98.605
  N      255.179    -851.508     -97.535
  C      254.638    -851.142     -98.759
  N      255.295    -851.579     -99.865
  N      253.558    -850.403     -98.901
  C      253.023    -850.018     -97.700
  C      253.456    -850.328     -96.419
  C      254.637    -851.154     -96.296
  O      255.150    -851.523     -95.248
  N      252.655    -849.757     -95.486
  C      251.733    -849.116     -96.176
  N      251.911    -849.252     -97.535
  O      245.960    -847.558     -95.467
  O      247.496    -848.351     -93.573
  H      248.950    -849.932    -100.730
  H      245.620    -848.465     -95.355
  H      256.000    -852.080     -97.495
  H      250.938    -848.526     -95.743
  H      251.793    -848.396     -99.406
  H      250.259    -850.737     -98.970
  H      256.158    -852.107     -99.828
  H      248.835    -849.666     -97.296
  H      254.941    -851.286    -100.771
  H      248.665    -847.308     -99.262
  H      248.480    -845.971     -97.133
  H      247.119    -847.049     -97.385
  P      246.606    -850.632     -98.285
  C      244.780    -849.335     -99.614
  O      245.252    -850.583     -99.124
  O      246.239    -849.857     -96.920
  O      247.172    -851.991     -98.018
  H      246.085    -850.517     -96.208
  H      243.949    -849.526    -100.299
  H      245.574    -848.819    -100.175
  H      244.443    -848.707     -98.789
  H      246.509    -844.273     -93.420
  H      246.264    -845.826     -92.657
  H      245.425    -845.439     -94.140

 3  4  5  6  7  8  9  10  11  12  23  26  30  31 0
 6-311+G(2d,p)
 ****
 33  35  36  37  38 0
 6-311+G(2d,p)
 ****
 1  2  13  14  15  16  17  18  19  20  21  22  24  25 0
 3-21G
 ****
 27  28  29  32  34  39  40  41  42  43  44  45  46  47  48  49 0
 3-21G
 ****


