%nproc=1
%NoSave
%Mem=1900MB
#P OB98/GEN NMR

erre ene a

0 1
  C       36.458      80.868    -107.909
  O       37.240      81.820    -107.217
  H       35.685      80.494    -107.231
  H       37.079      80.027    -108.227
  H       35.972      81.321    -108.778
  P       38.367      82.627    -108.022
  C       40.249      81.264    -106.906
  O       39.641      81.660    -108.130
  C       41.334      80.225    -107.176
  O       40.785      79.107    -107.910
  C       42.492      80.749    -108.019
  O       43.345      81.572    -107.249
  C       43.106      79.439    -108.491
  O       43.920      78.851    -107.464
  C       41.845      78.578    -108.741
  N       41.446      78.551    -110.150
  C       42.121      77.647    -110.962
  O       43.007      76.901    -110.549
  N       41.770      77.657    -112.286
  C       40.900      78.528    -112.874
  O       40.780      78.648    -114.089
  C       40.163      79.410    -111.956
  C       40.475      79.394    -110.658
  O       38.658      84.003    -107.525
  O       37.810      82.653    -109.524
  H       37.410      83.525    -109.705
  H       43.950      77.892    -107.651
  H       42.287      77.036    -112.893
  H       39.415      80.072    -112.376
  H       39.966      80.057    -109.969
  H       42.015      77.543    -108.415
  H       43.742      79.571    -109.368
  H       42.108      81.293    -108.890
  H       41.697      79.850    -106.209
  H       39.478      80.827    -106.260
  H       40.668      82.147    -106.412
  P       43.841      82.991    -107.796
  C       46.012      81.921    -108.642
  O       44.893      82.729    -108.978
  O       44.315      83.944    -106.746
  O       42.570      83.582    -108.571
  H       42.375      84.477    -108.228
  H       46.644      81.813    -109.499
  H       45.673      80.957    -108.324
  H       46.562      82.385    -107.850

 6  7  8  9  10  11  12  13  14  15  16  27  31  32  33  34  35 0
 6-311+G(2d,p)
 ****
 36  37 0
 6-311+G(2d,p)
 ****
 1  2  3  4  5  17  18  19  20  21  22  23  24  25 0
 3-21G
 ****
 26  28  29  30  38  39  40  41  42  43  44  45 0
 3-21G
 ****


