%nproc=1
%NoSave
%Mem=1900MB
#P OB98/GEN NMR

erre ene a

0 1
  C       37.556      -0.648     -22.048
  O       36.315      -1.293     -22.242
  P       35.252      -1.517     -21.072
  C       34.202      -3.591     -22.232
  O       34.830      -3.068     -21.067
  C       34.058      -5.120     -22.200
  O       35.342      -5.728     -22.446
  C       33.621      -5.579     -20.806
  O       32.255      -5.555     -20.444
  C       34.318      -6.917     -20.594
  O       33.465      -8.029     -20.866
  C       35.478      -6.875     -21.591
  N       39.561      -9.553     -20.231
  C       38.551      -9.893     -21.110
  N       38.538     -11.178     -21.525
  N       37.634      -9.055     -21.518
  C       37.724      -7.834     -20.940
  C       38.685      -7.376     -20.069
  C       39.716      -8.300     -19.658
  O       40.579      -8.063     -18.817
  N       38.415      -6.105     -19.633
  C       37.269      -5.804     -20.207
  N       36.790      -6.837     -20.978
  O       34.181      -0.484     -20.928
  O       36.194      -1.419     -19.765
  H       33.135      -7.938     -21.779
  H       35.666      -1.009     -19.053
  H       40.195     -10.265     -19.890
  H       36.730      -4.874     -20.072
  H       35.457      -7.755     -22.245
  H       34.641      -7.024     -19.552
  H       39.138     -11.882     -21.119
  H       34.095      -4.899     -20.088
  H       37.722     -11.504     -22.030
  H       33.405      -5.469     -23.004
  H       34.798      -3.277     -23.094
  H       33.212      -3.141     -22.345
  P       31.629      -4.875     -19.140
  C       29.271      -5.707     -19.676
  O       30.318      -5.693     -18.723
  O       31.029      -3.487     -19.667
  O       32.598      -4.633     -18.030
  H       30.948      -2.860     -18.924
  H       28.346      -6.016     -19.184
  H       29.508      -6.424     -20.468
  H       29.128      -4.716     -20.115
  H       38.091      -0.618     -22.974
  H       38.129      -1.187     -21.322
  H       37.389       0.350     -21.700

 3  4  5  6  7  8  9  10  11  12  23  26  30  31 0
 6-311+G(2d,p)
 ****
 33  35  36  37  38 0
 6-311+G(2d,p)
 ****
 1  2  13  14  15  16  17  18  19  20  21  22  24  25 0
 3-21G
 ****
 27  28  29  32  34  39  40  41  42  43  44  45  46  47  48  49 0
 3-21G
 ****


