%nproc=1
%NoSave
%Mem=1900MB
#P OB98/GEN NMR

erre ene a

0 1
  C       -1.326     167.784     -64.457
  O       -0.216     167.940     -65.317
  P        0.490     169.368     -65.463
  C        0.395     170.671     -67.677
  O       -0.339     170.214     -66.546
  C        0.093     169.796     -68.893
  O       -1.316     169.833     -69.202
  C        0.802     170.238     -70.168
  O        2.164     169.858     -70.145
  C       -0.037     169.537     -71.231
  O        0.364     168.165     -71.368
  C       -1.448     169.625     -70.625
  N       -4.994     170.718     -74.128
  C       -4.281     169.595     -73.887
  N       -3.322     169.395     -72.957
  C       -3.112     170.515     -72.249
  C       -3.734     171.744     -72.404
  C       -4.739     171.820     -73.383
  N       -5.515     172.938     -73.596
  N       -3.219     172.665     -71.506
  C       -2.300     172.003     -70.834
  N       -2.247     170.689     -71.204
  O        1.965     169.334     -65.682
  O        0.139     170.107     -64.085
  H        1.304     168.162     -71.628
  H        0.967     170.325     -63.615
  H       -4.518     168.744     -74.518
  H       -1.666     172.425     -70.063
  H       -2.006     168.690     -70.758
  H        0.054     170.004     -72.213
  H        0.704     171.324     -70.290
  H        0.356     168.761     -68.644
  H        1.462     170.618     -67.439
  H       -6.300     172.836     -74.220
  H       -5.552     173.647     -72.865
  H        0.130     171.711     -67.884
  P        3.181     170.480     -71.213
  C        4.096     168.582     -72.676
  O        3.091     169.568     -72.528
  O        4.563     170.744     -70.713
  O        2.463     171.836     -71.672
  H        3.139     172.503     -71.893
  H        5.020     169.053     -73.029
  H        3.765     167.852     -73.420
  H        4.282     168.068     -71.730
  H       -1.662     166.769     -64.489
  H       -2.117     168.431     -64.774
  H       -1.040     168.034     -63.457

 3  4  5  6  7  8  9  10  11  12  22  25  29  30  31  32 0
 6-311+G(2d,p)
 ****
 33  36  37 0
 6-311+G(2d,p)
 ****
 1  2  13  14  15  16  17  18  19  20  21  23  24  26 0
 3-21G
 ****
 27  28  34  35  38  39  40  41  42  43  44  45  46  47  48 0
 3-21G
 ****


