%nproc=1
%NoSave
%Mem=1900MB
#P OB98/GEN NMR

erre ene a

0 1
  C       25.762     -56.241     -37.159
  O       26.067     -57.526     -36.649
  P       24.987     -58.695     -36.826
  C       24.079     -60.034     -38.862
  O       24.674     -58.834     -38.393
  C       22.950     -59.721     -39.845
  O       21.796     -59.214     -39.108
  C       23.315     -58.669     -40.902
  O       22.620     -59.011     -42.110
  C       22.725     -57.399     -40.318
  O       22.533     -56.376     -41.282
  C       21.432     -57.956     -39.712
  N       20.821     -57.049     -38.743
  C       19.591     -57.418     -38.209
  O       18.995     -58.453     -38.505
  N       19.019     -56.517     -37.352
  C       19.498     -55.276     -37.053
  O       18.879     -54.469     -36.369
  C       20.801     -54.939     -37.646
  C       21.394     -55.826     -38.449
  O       23.650     -58.053     -36.227
  O       25.341     -59.978     -36.152
  H       23.413     -56.050     -41.543
  H       23.495     -58.374     -35.319
  H       18.132     -56.774     -36.946
  H       21.222     -53.969     -37.413
  H       22.346     -55.596     -38.917
  H       20.709     -58.180     -40.507
  H       23.394     -57.010     -39.542
  H       24.389     -58.590     -41.089
  H       22.639     -60.655     -40.329
  H       23.673     -60.587     -38.014
  H       24.842     -60.661     -39.337
  P       23.382     -58.780     -43.505
  C       25.452     -59.901     -44.639
  O       24.703     -59.682     -43.463
  O       23.927     -57.286     -43.304
  O       22.503     -58.939     -44.703
  H       24.296     -57.140     -42.417
  H       25.435     -59.027     -45.296
  H       25.044     -60.762     -45.173
  H       26.488     -60.114     -44.364
  H       26.578     -55.577     -36.963
  H       24.878     -55.870     -36.685
  H       25.600     -56.305     -38.215

 3  4  5  6  7  8  9  10  11  12  13  23  28  29  30  31  32 0
 6-311+G(2d,p)
 ****
 33  34 0
 6-311+G(2d,p)
 ****
 1  2  14  15  16  17  18  19  20  21  22  24  25  26 0
 3-21G
 ****
 27  35  36  37  38  39  40  41  42  43  44  45 0
 3-21G
 ****


