%nproc=1
%NoSave
%Mem=1900MB
#P OB98/GEN NMR

erre ene a

0 1
  C     -235.355     206.967    -575.802
  O     -235.923     207.679    -574.716
  P     -237.482     207.528    -574.351
  C     -237.171     205.253    -573.159
  O     -237.729     205.945    -574.266
  C     -238.058     204.067    -572.787
  O     -239.333     204.546    -572.322
  C     -238.362     203.117    -573.939
  O     -237.253     202.284    -574.222
  C     -239.601     202.408    -573.405
  O     -239.225     201.381    -572.476
  C     -240.330     203.545    -572.664
  N     -241.414     204.134    -573.444
  C     -242.651     203.484    -573.372
  O     -242.802     202.476    -572.681
  N     -243.707     204.012    -574.070
  C     -243.544     205.077    -574.791
  N     -244.643     205.597    -575.406
  C     -242.244     205.761    -574.936
  C     -241.234     205.241    -574.237
  O     -238.412     208.256    -575.256
  O     -237.578     207.971    -572.822
  H     -238.690     201.814    -571.780
  H     -237.726     208.943    -572.702
  H     -242.153     206.638    -575.565
  H     -240.253     205.693    -574.274
  H     -240.732     203.179    -571.710
  H     -240.210     201.943    -574.194
  H     -238.622     203.685    -574.842
  H     -237.574     203.520    -571.958
  H     -245.536     205.198    -575.135
  H     -237.117     205.942    -572.310
  H     -244.662     206.551    -575.735
  H     -236.157     204.921    -573.409
  P     -237.261     201.475    -575.609
  C     -236.473     203.361    -577.208
  O     -237.556     202.568    -576.751
  O     -238.611     200.618    -575.521
  O     -236.062     200.619    -575.837
  H     -238.412     199.696    -575.278
  H     -236.776     203.869    -578.124
  H     -235.599     202.738    -577.422
  H     -236.217     204.113    -576.457
  H     -234.314     207.203    -575.878
  H     -235.851     207.245    -576.709
  H     -235.472     205.916    -575.639

 3  4  5  6  7  8  9  10  11  12  13  23  27  28  29  30  32 0
 6-311+G(2d,p)
 ****
 34  35 0
 6-311+G(2d,p)
 ****
 1  2  14  15  16  17  18  19  20  21  22  24  25  26 0
 3-21G
 ****
 31  33  36  37  38  39  40  41  42  43  44  45  46 0
 3-21G
 ****


