%nproc=1
%NoSave
%Mem=1900MB
#P OB98/GEN NMR

erre ene a

0 1
  C       33.357      56.334     199.017
  O       34.588      57.029     199.057
  H       33.546      55.274     199.205
  H       32.895      56.440     198.031
  H       32.684      56.716     199.789
  P       34.543      58.602     198.746
  C       35.963      58.055     196.640
  O       35.770      58.910     197.758
  C       37.335      58.316     196.027
  O       37.474      57.570     194.796
  C       37.580      59.771     195.651
  O       37.909      60.570     196.773
  C       38.735      59.623     194.672
  O       39.996      59.540     195.354
  C       38.398      58.293     193.959
  N       37.871      58.508     192.616
  C       38.817      58.785     191.631
  O       40.026      58.850     191.858
  N       38.322      59.022     190.377
  C       37.003      59.048     190.029
  O       36.623      59.342     188.900
  C       36.049      58.735     191.106
  C       36.518      58.493     192.335
  O       34.996      59.259     200.133
  O       33.221      59.117     198.282
  H       34.218      59.609     200.606
  H       40.672      59.402     194.661
  H       38.992      59.235     189.654
  H       34.993      58.741     190.861
  H       35.832      58.278     193.148
  H       39.299      57.670     193.871
  H       38.799      60.477     193.994
  H       36.712      60.178     195.114
  H       38.103      57.965     196.731
  H       35.191      58.257     195.888
  H       35.873      57.012     196.966
  P       37.313      62.056     196.857
  C       39.665      63.111     196.342
  O       38.543      63.026     197.204
  O       36.481      61.978     198.222
  O       36.520      62.454     195.659
  H       36.908      61.418     198.895
  H       40.372      63.806     196.744
  H       39.348      63.444     195.376
  H       40.122      62.147     196.255

 6  7  8  9  10  11  12  13  14  15  16  27  31  32  33  34  35 0
 6-311+G(2d,p)
 ****
 36  37 0
 6-311+G(2d,p)
 ****
 1  2  3  4  5  17  18  19  20  21  22  23  24  25 0
 3-21G
 ****
 26  28  29  30  38  39  40  41  42  43  44  45 0
 3-21G
 ****


