%nproc=1
%NoSave
%Mem=1900MB
#P OB98/GEN NMR

erre ene a

0 1
  C     -156.280    -287.674     -78.607
  O     -156.778    -287.077     -77.430
  H     -156.956    -287.441     -79.433
  H     -156.237    -288.759     -78.486
  H     -155.285    -287.285     -78.845
  P     -155.860    -287.153     -76.116
  C     -154.404    -285.022     -76.391
  O     -155.493    -285.639     -75.723
  C     -154.764    -283.589     -76.787
  O     -155.981    -283.614     -77.575
  C     -154.995    -282.662     -75.590
  O     -154.465    -281.370     -75.903
  C     -156.509    -282.575     -75.491
  O     -156.949    -281.378     -74.852
  C     -156.925    -282.713     -76.959
  N     -158.296    -283.197     -77.084
  C     -159.195    -282.369     -77.763
  O     -158.819    -281.286     -78.215
  N     -160.506    -282.755     -77.863
  C     -160.906    -283.835     -77.263
  N     -162.225    -284.148     -77.376
  C     -160.007    -284.702     -76.479
  C     -158.727    -284.332     -76.437
  O     -154.476    -287.734     -76.663
  O     -156.417    -287.966     -74.994
  H     -156.557    -281.348     -73.951
  H     -154.028    -288.279     -75.989
  H     -160.391    -285.577     -75.975
  H     -157.996    -284.904     -75.880
  H     -156.845    -281.747     -77.476
  H     -156.885    -283.424     -74.907
  H     -154.540    -283.028     -74.666
  H     -153.971    -283.198     -77.436
  H     -162.813    -283.518     -77.908
  H     -154.172    -285.593     -77.297
  H     -162.654    -284.938     -76.914
  H     -153.524    -285.027     -75.737
  P     -153.806    -280.550     -74.694
  C     -151.432    -281.601     -74.760
  O     -152.227    -280.442     -74.962
  O     -153.912    -281.561     -73.458
  O     -154.489    -279.253     -74.406
  H     -154.589    -281.249     -72.829
  H     -150.409    -281.374     -74.977
  H     -151.769    -282.382     -75.408
  H     -151.518    -281.920     -73.742

 6  7  8  9  10  11  12  13  14  15  16  26  30  31  32  33  35 0
 6-311+G(2d,p)
 ****
 37  38 0
 6-311+G(2d,p)
 ****
 1  2  3  4  5  17  18  19  20  21  22  23  24  25 0
 3-21G
 ****
 27  28  29  34  36  39  40  41  42  43  44  45  46 0
 3-21G
 ****


