%nproc=1
%NoSave
%Mem=1900MB
#P OB98/GEN NMR

erre ene a

0 1
  C     -238.439    -327.010    -445.938
  O     -237.848    -326.027    -445.112
  H     -239.526    -326.882    -445.913
  H     -238.198    -328.006    -445.562
  H     -238.095    -326.906    -446.975
  P     -236.248    -325.910    -445.166
  C     -236.036    -326.959    -442.796
  O     -235.675    -327.033    -444.169
  C     -236.281    -328.359    -442.238
  O     -236.985    -329.168    -443.211
  C     -235.008    -329.123    -441.889
  O     -234.514    -328.763    -440.602
  C     -235.533    -330.555    -441.893
  O     -236.271    -330.806    -440.678
  C     -236.487    -330.533    -443.098
  N     -235.068    -334.434    -446.014
  C     -235.667    -334.427    -444.770
  N     -235.922    -335.635    -444.213
  N     -235.989    -333.339    -444.115
  C     -235.668    -332.202    -444.788
  C     -235.077    -332.078    -446.022
  C     -234.731    -333.291    -446.733
  O     -234.218    -333.350    -447.845
  N     -234.916    -330.763    -446.375
  C     -235.400    -330.095    -445.346
  N     -235.861    -330.920    -444.352
  O     -235.952    -324.538    -444.386
  O     -235.653    -325.893    -446.532
  H     -237.037    -330.201    -440.684
  H     -235.189    -324.097    -444.807
  H     -234.832    -335.298    -446.460
  H     -235.436    -329.013    -445.272
  H     -237.351    -331.188    -442.957
  H     -234.738    -331.294    -441.942
  H     -235.651    -336.507    -444.636
  H     -234.244    -329.013    -442.667
  H     -236.394    -335.655    -443.319
  H     -236.933    -328.265    -441.358
  H     -236.950    -326.361    -442.698
  H     -235.226    -326.464    -442.242
  P     -233.189    -327.857    -440.544
  C     -232.074    -329.810    -439.248
  O     -231.970    -328.877    -440.320
  O     -233.320    -327.116    -439.126
  O     -233.041    -326.888    -441.672
  H     -232.799    -326.293    -439.129
  H     -231.196    -330.420    -439.220
  H     -232.934    -330.429    -439.396
  H     -232.171    -329.281    -438.323

 6  7  8  9  10  11  12  13  14  15  26  29  33  34 0
 6-311+G(2d,p)
 ****
 36  38  39  40  41 0
 6-311+G(2d,p)
 ****
 1  2  3  4  5  16  17  18  19  20  21  22  23  24  25 0
 3-21G
 ****
 27  28  30  31  32  35  37  42  43  44  45  46  47 0
 3-21G
 ****
 48  49 0
 3-21G
 ****


