%nproc=1
%NoSave
%Mem=1900MB
#P OB98/GEN NMR

erre ene a

0 1
  C     -363.255      32.871     -10.590
  O     -364.182      31.799     -10.612
  P     -363.718      30.398      -9.978
  C     -366.210      29.658     -10.090
  O     -364.854      29.330     -10.360
  C     -367.120      28.493     -10.465
  O     -366.773      27.313      -9.713
  C     -368.595      28.734     -10.174
  O     -369.226      29.505     -11.184
  C     -369.130      27.311     -10.178
  O     -369.330      26.866     -11.532
  C     -367.980      26.533      -9.525
  N     -369.983      23.385      -6.111
  C     -369.778      23.205      -7.463
  N     -370.226      22.043      -7.991
  N     -369.187      24.081      -8.232
  C     -368.800      25.198      -7.569
  C     -368.944      25.490      -6.232
  C     -369.611      24.516      -5.396
  O     -369.869      24.640      -4.203
  N     -368.418      26.716      -5.928
  C     -367.953      27.171      -7.074
  N     -368.199      26.305      -8.109
  O     -363.931      30.613      -8.408
  O     -362.319      29.999     -10.308
  H     -369.393      25.891     -11.499
  H     -363.433      29.938      -7.908
  H     -370.449      22.681      -5.561
  H     -367.450      28.119      -7.206
  H     -367.820      25.562     -10.005
  H     -370.092      27.216      -9.667
  H     -370.745      21.358      -7.464
  H     -368.737      29.174      -9.179
  H     -370.147      21.913      -8.992
  H     -366.967      28.271     -11.530
  H     -366.488      30.542     -10.671
  H     -366.317      29.898      -9.026
  P     -370.537      30.325     -10.755
  C     -370.410      31.524     -13.056
  O     -371.203      30.810     -12.129
  O     -369.935      31.666     -10.124
  O     -371.434      29.603      -9.806
  H     -370.556      32.045      -9.476
  H     -370.926      31.540     -14.019
  H     -369.435      31.045     -13.190
  H     -370.272      32.553     -12.714
  H     -363.697      33.734     -11.042
  H     -362.376      32.594     -11.134
  H     -362.992      33.094      -9.577

 3  4  5  6  7  8  9  10  11  12  23  26  30  31 0
 6-311+G(2d,p)
 ****
 33  35  36  37  38 0
 6-311+G(2d,p)
 ****
 1  2  13  14  15  16  17  18  19  20  21  22  24  25 0
 3-21G
 ****
 27  28  29  32  34  39  40  41  42  43  44  45  46  47  48  49 0
 3-21G
 ****


