%nproc=1
%NoSave
%Mem=1900MB
#P OB98/GEN NMR

erre ene a

0 1
  C      -23.892      63.850     989.545
  O      -24.237      64.852     988.598
  P      -23.270      66.120     988.467
  C      -24.758      68.071     989.327
  O      -23.720      67.152     989.615
  C      -24.470      69.422     989.976
  O      -24.277      69.272     991.403
  C      -23.195      70.098     989.476
  O      -23.392      70.782     988.245
  C      -22.936      71.095     990.600
  O      -23.776      72.250     990.435
  C      -23.359      70.292     991.837
  N      -20.422      70.429     995.973
  C      -21.613      71.084     995.701
  N      -22.053      71.943     996.648
  N      -22.314      70.913     994.613
  C      -21.746      70.029     993.750
  C      -20.582      69.309     993.898
  C      -19.819      69.521     995.110
  O      -18.733      69.006     995.380
  N      -20.348      68.511     992.816
  C      -21.365      68.726     992.008
  N      -22.224      69.682     992.519
  O      -23.758      66.831     987.122
  O      -21.810      65.794     988.433
  H      -23.676      72.794     991.241
  H      -23.076      67.451     986.800
  H      -19.924      70.596     996.818
  H      -21.520      68.251     991.058
  H      -23.881      70.925     992.569
  H      -21.908      71.457     990.621
  H      -21.524      72.166     997.490
  H      -22.361      69.391     989.420
  H      -22.884      72.488     996.460
  H      -25.339      70.072     989.818
  H      -25.705      67.677     989.700
  H      -24.847      68.189     988.242
  P      -22.283      70.550     987.104
  C      -20.821      72.676     987.432
  O      -20.968      71.290     987.648
  O      -22.791      71.496     985.915
  O      -22.125      69.130     986.683
  H      -22.477      71.160     985.063
  H      -20.031      73.058     988.071
  H      -21.751      73.216     987.664
  H      -20.551      72.864     986.380
  H      -24.624      63.070     989.521
  H      -23.861      64.280     990.524
  H      -22.932      63.445     989.302

 3  4  5  6  7  8  9  10  11  12  23  26  30  31 0
 6-311+G(2d,p)
 ****
 33  35  36  37  38 0
 6-311+G(2d,p)
 ****
 1  2  13  14  15  16  17  18  19  20  21  22  24  25 0
 3-21G
 ****
 27  28  29  32  34  39  40  41  42  43  44  45  46  47  48  49 0
 3-21G
 ****


