%nproc=1
%NoSave
%Mem=1900MB
#P OB98/GEN NMR

erre ene a

0 1
  C      338.986      37.459     673.213
  O      340.064      37.453     672.302
  H      338.161      36.888     672.782
  H      338.651      38.485     673.384
  H      339.271      36.999     674.164
  P      341.501      37.966     672.797
  C      342.744      35.709     672.672
  O      342.205      36.717     673.520
  C      344.277      35.810     672.614
  O      344.816      35.480     673.930
  C      344.926      34.851     671.601
  O      346.120      35.486     671.119
  C      345.276      33.663     672.476
  O      346.226      32.829     671.858
  C      345.726      34.378     673.756
  N      345.734      33.485     674.913
  C      346.956      33.286     675.536
  O      348.011      33.786     675.132
  N      346.958      32.443     676.615
  C      345.881      31.754     677.084
  O      345.943      30.985     678.037
  C      344.616      31.967     676.363
  C      344.595      32.815     675.328
  O      341.501      39.228     673.594
  O      342.354      38.115     671.449
  H      345.929      32.584     670.956
  H      343.016      38.822     671.547
  H      347.838      32.297     677.081
  H      343.744      31.429     676.703
  H      343.684      32.999     674.777
  H      346.739      34.784     673.634
  H      344.384      33.055     672.673
  H      344.266      34.594     670.770
  H      344.552      36.846     672.409
  H      342.330      35.852     671.672
  H      342.451      34.723     673.045
  P      346.400      35.705     669.551
  C      345.156      37.934     669.152
  O      345.167      36.521     668.925
  O      346.747      34.455     668.807
  O      347.608      36.755     669.501
  H      348.122      36.622     668.677
  H      344.292      38.363     668.689
  H      346.038      38.370     668.732
  H      345.130      38.126     670.204

 6  7  8  9  10  11  12  13  14  15  16  26  31  32  33  34  35 0
 6-311+G(2d,p)
 ****
 36  37 0
 6-311+G(2d,p)
 ****
 1  2  3  4  5  17  18  19  20  21  22  23  24  25 0
 3-21G
 ****
 27  28  29  30  38  39  40  41  42  43  44  45 0
 3-21G
 ****


