%nproc=1
%NoSave
%Mem=1900MB
#P OB98/GEN NMR

erre ene a

0 1
  C       75.553     -29.754    -166.773
  O       74.438     -28.896    -166.901
  H       75.688     -30.321    -167.697
  H       76.446     -29.148    -166.600
  H       75.424     -30.439    -165.931
  P       72.984     -29.572    -166.860
  C       72.043     -29.324    -164.454
  O       72.141     -28.764    -165.754
  C       71.268     -28.389    -163.527
  O       71.181     -29.008    -162.213
  C       71.906     -27.002    -163.351
  O       70.861     -26.026    -163.298
  C       72.566     -27.094    -161.987
  O       72.720     -25.823    -161.365
  C       71.607     -28.024    -161.253
  N       71.185     -28.873    -156.259
  C       70.289     -28.474    -157.184
  N       70.472     -28.325    -158.512
  C       71.712     -28.700    -158.865
  C       72.733     -29.133    -158.038
  C       72.435     -29.199    -156.665
  N       73.361     -29.537    -155.706
  N       73.879     -29.370    -158.771
  C       73.563     -29.059    -160.012
  N       72.264     -28.647    -160.118
  O       73.279     -30.979    -166.151
  O       72.315     -29.741    -168.181
  H       72.923     -25.957    -160.419
  H       73.529     -31.637    -166.825
  H       69.297     -28.233    -156.810
  H       74.236     -29.085    -160.857
  H       70.718     -27.503    -160.875
  H       73.557     -27.550    -162.090
  H       72.617     -26.740    -164.143
  H       70.243     -28.297    -163.905
  H       73.050     -29.469    -164.049
  H       73.087     -29.452    -154.740
  H       74.322     -29.675    -155.981
  H       71.546     -30.297    -164.515
  P       70.677     -25.072    -164.573
  C       68.602     -26.064    -165.793
  O       69.123     -25.034    -164.961
  O       71.334     -25.918    -165.763
  O       71.325     -23.734    -164.426
  H       71.744     -25.322    -166.414
  H       67.558     -25.896    -165.958
  H       68.740     -27.012    -165.316
  H       69.116     -26.059    -166.731

 6  7  8  9  10  11  12  13  14  15  25  28  32  33  34  35 0
 6-311+G(2d,p)
 ****
 36  39  40 0
 6-311+G(2d,p)
 ****
 1  2  3  4  5  16  17  18  19  20  21  22  23  24 0
 3-21G
 ****
 26  27  29  30  31  37  38  41  42  43  44  45  46  47 0
 3-21G
 ****
 48 0
 3-21G
 ****


