%nproc=1
%NoSave
%Mem=1900MB
#P OB98/GEN NMR

erre ene a

0 1
  C      -76.568     414.354      11.196
  O      -75.438     414.111      12.022
  P      -74.415     415.289      12.413
  C      -75.698     415.755      14.620
  O      -75.252     416.272      13.375
  C      -75.374     416.734      15.755
  O      -75.861     418.047      15.379
  C      -76.002     416.371      17.106
  O      -75.077     416.762      18.125
  C      -77.248     417.239      17.143
  O      -77.722     417.454      18.465
  C      -76.738     418.501      16.433
  N      -77.825     419.321      15.899
  C      -78.453     420.215      16.766
  O      -78.115     420.294      17.951
  N      -79.458     421.016      16.280
  C      -79.862     420.871      15.054
  N      -80.816     421.728      14.598
  C      -79.300     419.862      14.134
  C      -78.284     419.145      14.610
  O      -73.761     415.962      11.256
  O      -73.402     414.609      13.442
  H      -77.729     416.592      18.933
  H      -72.655     414.138      12.989
  H      -79.692     419.759      13.126
  H      -77.794     418.399      14.001
  H      -76.126     419.101      17.119
  H      -78.047     416.760      16.568
  H      -76.211     415.298      17.200
  H      -74.280     416.803      15.842
  H      -81.053     422.510      15.199
  H      -75.174     414.808      14.809
  H      -80.941     421.890      13.606
  H      -76.776     415.552      14.572
  P      -74.964     415.853      19.444
  C      -73.316     414.334      18.134
  O      -74.426     414.410      19.002
  O      -76.512     415.552      19.764
  O      -74.315     416.484      20.636
  H      -76.612     415.367      20.718
  H      -73.087     413.280      17.951
  H      -72.440     414.807      18.587
  H      -73.546     414.812      17.178
  H      -77.113     413.443      11.060
  H      -76.242     414.720      10.245
  H      -77.200     415.082      11.661

 3  4  5  6  7  8  9  10  11  12  13  23  27  28  29  30  32 0
 6-311+G(2d,p)
 ****
 34  35 0
 6-311+G(2d,p)
 ****
 1  2  14  15  16  17  18  19  20  21  22  24  25  26 0
 3-21G
 ****
 31  33  36  37  38  39  40  41  42  43  44  45  46 0
 3-21G
 ****


