%nproc=1
%NoSave
%Mem=1900MB
#P OB98/GEN NMR

erre ene a

0 1
  C      168.782     177.978    -198.439
  O      168.491     176.765    -199.101
  H      168.496     178.810    -199.087
  H      169.851     178.047    -198.225
  H      168.213     178.042    -197.507
  P      168.944     175.416    -198.357
  C      166.958     175.720    -196.693
  O      168.362     175.593    -196.869
  C      166.571     175.316    -195.275
  O      166.909     173.933    -195.029
  C      167.280     176.105    -194.177
  O      166.741     177.399    -193.975
  C      167.018     175.193    -192.991
  O      165.650     175.331    -192.569
  C      167.271     173.809    -193.626
  N      168.660     173.361    -193.491
  C      168.936     172.479    -192.439
  O      168.045     172.112    -191.677
  N      170.231     172.059    -192.252
  C      171.166     172.463    -193.055
  N      172.428     172.014    -192.818
  C      170.919     173.380    -194.181
  C      169.659     173.785    -194.340
  O      170.517     175.620    -198.143
  O      168.572     174.138    -199.030
  H      165.103     175.269    -193.373
  H      170.874     174.907    -197.559
  H      171.733     173.700    -194.817
  H      169.400     174.459    -195.148
  H      166.616     173.048    -193.185
  H      167.641     175.419    -192.126
  H      168.361     176.155    -194.352
  H      165.481     175.407    -195.189
  H      172.576     171.434    -192.003
  H      166.461     175.067    -197.419
  H      173.241     172.387    -193.290
  H      166.649     176.753    -196.874
  P      167.706     178.507    -193.329
  C      168.772     179.798    -195.323
  O      168.899     178.750    -194.372
  O      168.415     177.719    -192.132
  O      167.013     179.746    -192.852
  H      168.586     178.312    -191.376
  H      169.646     179.828    -195.940
  H      168.664     180.732    -194.812
  H      167.910     179.624    -195.933

 6  7  8  9  10  11  12  13  14  15  16  26  30  31  32  33  35 0
 6-311+G(2d,p)
 ****
 37  38 0
 6-311+G(2d,p)
 ****
 1  2  3  4  5  17  18  19  20  21  22  23  24  25 0
 3-21G
 ****
 27  28  29  34  36  39  40  41  42  43  44  45  46 0
 3-21G
 ****


