%nproc=1
%NoSave
%Mem=1900MB
#P OB98/GEN NMR

erre ene a

0 1
  C     -416.792      63.316     361.892
  O     -415.634      62.539     362.143
  P     -414.400      62.545     361.118
  C     -414.186      60.115     361.977
  O     -414.046      60.995     360.872
  C     -413.341      58.862     361.768
  O     -413.709      58.244     360.522
  C     -411.848      59.128     361.673
  O     -411.282      59.361     362.947
  C     -411.374      57.852     360.975
  O     -411.261      56.785     361.915
  C     -412.535      57.585     359.988
  N     -412.257      58.034     358.631
  C     -411.319      57.270     357.911
  O     -410.793      56.275     358.404
  N     -411.030      57.638     356.615
  C     -411.609      58.683     356.092
  N     -411.345      58.956     354.789
  C     -412.552      59.541     356.837
  C     -412.828      59.153     358.086
  O     -413.240      63.397     361.537
  O     -415.036      62.975     359.712
  H     -411.027      55.987     361.418
  H     -415.061      63.957     359.580
  H     -412.989      60.404     356.366
  H     -413.528      59.722     358.691
  H     -412.773      56.507     359.974
  H     -410.398      57.961     360.473
  H     -411.653      59.994     361.022
  H     -413.548      58.160     362.579
  H     -410.836      58.247     354.270
  H     -415.243      59.826     362.072
  H     -411.948      59.553     354.240
  H     -413.892      60.640     362.903
  P     -410.072      60.417     363.030
  C     -409.282      59.450     365.318
  O     -408.952      59.721     363.961
  O     -410.685      61.582     363.965
  O     -409.592      60.936     361.714
  H     -410.950      62.347     363.411
  H     -408.517      58.772     365.725
  H     -410.253      58.966     365.389
  H     -409.263      60.376     365.897
  H     -417.495      63.176     362.687
  H     -417.234      63.009     360.967
  H     -416.522      64.350     361.832

 3  4  5  6  7  8  9  10  11  12  13  23  27  28  29  30  32 0
 6-311+G(2d,p)
 ****
 34  35 0
 6-311+G(2d,p)
 ****
 1  2  14  15  16  17  18  19  20  21  22  24  25  26 0
 3-21G
 ****
 31  33  36  37  38  39  40  41  42  43  44  45  46 0
 3-21G
 ****


