%nproc=1
%NoSave
%Mem=1900MB
#P OB98/GEN NMR

erre ene a

0 1
  C     -948.956    -314.943    -353.339
  O     -947.549    -315.057    -353.467
  H     -949.408    -315.041    -354.326
  H     -949.219    -313.964    -352.935
  H     -949.342    -315.740    -352.694
  P     -946.700    -315.121    -352.111
  C     -945.549    -317.463    -352.374
  O     -946.556    -316.678    -351.763
  C     -946.062    -318.136    -353.646
  O     -946.349    -317.101    -354.631
  C     -945.081    -319.127    -354.272
  O     -945.832    -320.211    -354.845
  C     -944.432    -318.322    -355.389
  O     -943.894    -319.166    -356.404
  C     -945.597    -317.424    -355.837
  N     -945.143    -316.227    -356.527
  C     -945.298    -316.210    -357.925
  O     -945.796    -317.170    -358.505
  N     -944.860    -315.104    -358.621
  C     -944.252    -314.151    -357.999
  N     -943.822    -313.099    -358.749
  C     -944.025    -314.154    -356.535
  C     -944.501    -315.190    -355.873
  O     -947.769    -314.589    -351.031
  O     -945.422    -314.350    -352.135
  H     -943.693    -318.627    -357.195
  H     -948.657    -314.972    -351.148
  H     -943.506    -313.321    -356.064
  H     -944.383    -315.273    -354.792
  H     -946.283    -317.969    -356.496
  H     -943.613    -317.718    -354.983
  H     -944.366    -319.519    -353.560
  H     -947.033    -318.615    -353.433
  H     -943.990    -313.147    -359.763
  H     -945.193    -318.240    -351.675
  H     -943.290    -312.329    -358.384
  H     -944.697    -316.805    -352.607
  P     -946.118    -321.511    -353.967
  C     -948.535    -322.229    -354.567
  O     -947.686    -321.601    -353.615
  O     -945.190    -321.749    -352.819
  O     -945.954    -322.699    -355.044
  H     -945.486    -323.432    -354.607
  H     -949.543    -322.219    -354.207
  H     -948.219    -323.240    -354.714
  H     -948.482    -321.700    -355.496

 6  7  8  9  10  11  12  13  14  15  16  26  30  31  32  33  35 0
 6-311+G(2d,p)
 ****
 37  38 0
 6-311+G(2d,p)
 ****
 1  2  3  4  5  17  18  19  20  21  22  23  24  25 0
 3-21G
 ****
 27  28  29  34  36  39  40  41  42  43  44  45  46 0
 3-21G
 ****


