%nproc=1
%NoSave
%Mem=1900MB
#P OB98/GEN NMR

erre ene a

0 1
  C     -191.746    -245.937    -128.602
  O     -191.380    -246.753    -129.698
  P     -191.170    -248.334    -129.583
  C     -191.850    -250.410    -131.000
  O     -192.118    -249.050    -130.672
  C     -192.784    -250.958    -132.086
  O     -194.157    -250.719    -131.709
  C     -192.563    -250.210    -133.408
  O     -191.515    -250.593    -134.278
  C     -193.935    -250.134    -134.057
  O     -194.134    -251.145    -135.049
  C     -194.897    -250.346    -132.880
  N     -199.255    -247.879    -133.744
  C     -198.926    -249.191    -134.031
  N     -199.799    -249.864    -134.812
  N     -197.830    -249.775    -133.608
  C     -197.006    -248.943    -132.919
  C     -197.231    -247.634    -132.557
  C     -198.466    -247.016    -132.994
  O     -198.755    -245.829    -132.831
  N     -196.147    -247.088    -131.919
  C     -195.249    -248.051    -131.935
  N     -195.712    -249.185    -132.560
  O     -191.120    -248.906    -128.201
  O     -189.705    -248.513    -130.238
  H     -195.064    -251.098    -135.345
  H     -189.264    -249.242    -129.766
  H     -200.073    -247.460    -134.161
  H     -194.245    -247.973    -131.528
  H     -195.591    -251.171    -133.094
  H     -194.072    -249.173    -134.568
  H     -200.573    -249.405    -135.274
  H     -192.321    -249.173    -133.139
  H     -199.511    -250.763    -135.187
  H     -192.685    -252.047    -132.174
  H     -191.942    -250.993    -130.077
  H     -190.809    -250.504    -131.336
  P     -190.865    -249.697    -135.432
  C     -188.650    -249.549    -136.720
  O     -189.402    -250.272    -135.757
  O     -190.542    -248.297    -134.724
  O     -191.737    -249.486    -136.633
  H     -190.478    -247.589    -135.393
  H     -187.832    -250.173    -137.086
  H     -188.232    -248.649    -136.255
  H     -189.280    -249.260    -137.567
  H     -191.825    -244.920    -128.925
  H     -191.001    -246.011    -127.838
  H     -192.689    -246.263    -128.214

 3  4  5  6  7  8  9  10  11  12  23  26  30  31 0
 6-311+G(2d,p)
 ****
 33  35  36  37  38 0
 6-311+G(2d,p)
 ****
 1  2  13  14  15  16  17  18  19  20  21  22  24  25 0
 3-21G
 ****
 27  28  29  32  34  39  40  41  42  43  44  45  46  47  48  49 0
 3-21G
 ****


