%nproc=1
%NoSave
%Mem=1900MB
#P OB98/GEN NMR

erre ene a

0 1
  C      494.028     382.508    -162.251
  O      494.939     382.678    -163.350
  P      494.485     382.049    -164.759
  C      496.652     380.656    -165.071
  O      495.811     381.677    -165.592
  C      498.078     381.167    -164.820
  O      498.689     381.517    -166.089
  C      498.162     382.409    -163.919
  O      499.344     382.290    -163.102
  C      498.410     383.537    -164.913
  O      499.032     384.669    -164.297
  C      499.277     382.825    -165.944
  N      502.265     385.224    -169.244
  C      502.602     384.535    -168.092
  N      503.911     384.505    -167.759
  N      501.718     383.934    -167.325
  C      500.452     384.020    -167.804
  C      500.001     384.661    -168.930
  C      500.981     385.355    -169.740
  O      500.746     386.034    -170.747
  N      498.642     384.526    -169.081
  C      498.267     383.806    -168.029
  N      499.323     383.483    -167.223
  O      493.875     383.316    -165.543
  O      493.473     380.956    -164.630
  H      499.061     385.382    -164.968
  H      492.958     383.122    -165.816
  H      502.990     385.679    -169.777
  H      497.247     383.527    -167.795
  H      500.305     382.692    -165.581
  H      497.454     383.864    -165.328
  H      504.649     384.888    -168.327
  H      497.284     382.579    -163.284
  H      504.178     383.964    -166.936
  H      498.660     380.343    -164.391
  H      496.691     379.827    -165.776
  H      496.211     380.287    -164.137
  P      499.099     381.960    -161.540
  C      500.253     384.088    -160.583
  O      500.291     382.683    -160.746
  O      499.461     380.412    -161.441
  O      497.713     382.262    -161.065
  H      498.970     379.998    -160.700
  H      499.299     384.527    -160.873
  H      501.039     384.533    -161.209
  H      500.449     384.328    -159.538
  H      494.437     382.965    -161.375
  H      493.877     381.464    -162.071
  H      493.092     382.968    -162.489

 3  4  5  6  7  8  9  10  11  12  23  26  30  31  33  0
 6-311+G(2d,p)
 ****
 35  36  37  38 0
 6-311+G(2d,p)
 ****
 1  2  13  14  15  16  17  18  19  20  21  22  24  25  27  28  29 0
 3-21G
 ****
 32  34  39  40  41  42  43  44  45  46  47  48  49 0
 3-21G
 ****


