%nproc=1
%NoSave
%Mem=1900MB
#P OB98/GEN NMR

erre ene a

0 1
  C     -295.636    -115.112      40.845
  O     -294.348    -114.549      40.983
  H     -295.741    -115.501      39.830
  H     -296.395    -114.343      41.005
  H     -295.786    -115.934      41.550
  P     -293.822    -114.168      42.447
  C     -292.876    -116.360      43.422
  O     -292.583    -115.142      42.753
  C     -291.659    -116.856      44.209
  O     -292.085    -117.917      45.110
  C     -290.536    -117.424      43.327
  O     -289.295    -117.170      43.998
  C     -290.851    -118.907      43.346
  O     -289.743    -119.677      42.937
  C     -291.301    -119.085      44.798
  N     -292.052    -120.324      45.002
  C     -291.883    -120.958      46.225
  O     -291.122    -120.544      47.100
  N     -292.584    -122.118      46.404
  C     -293.372    -122.724      45.469
  O     -293.953    -123.782      45.671
  C     -293.479    -122.030      44.176
  C     -292.827    -120.878      44.004
  O     -294.860    -114.126      43.518
  O     -293.107    -112.749      42.253
  H     -290.018    -120.602      42.764
  H     -293.177    -112.223      43.073
  H     -292.480    -122.585      47.290
  H     -294.089    -122.489      43.410
  H     -292.886    -120.342      43.063
  H     -290.435    -119.101      45.472
  H     -291.674    -119.135      42.661
  H     -290.522    -117.000      42.322
  H     -291.291    -116.036      44.837
  H     -293.156    -117.101      42.666
  H     -293.721    -116.209      44.101
  P     -288.017    -116.575      43.232
  C     -288.761    -114.232      42.465
  O     -288.004    -114.981      43.411
  O     -287.883    -117.033      41.815
  O     -286.762    -117.057      44.102
  H     -285.977    -117.139      43.528
  H     -288.676    -113.189      42.686
  H     -289.789    -114.525      42.518
  H     -288.387    -114.420      41.480

 6  7  8  9  10  11  12  13  14  15  16  26  31  32  33  34  35 0
 6-311+G(2d,p)
 ****
 36  37 0
 6-311+G(2d,p)
 ****
 1  2  3  4  5  17  18  19  20  21  22  23  24  25 0
 3-21G
 ****
 27  28  29  30  38  39  40  41  42  43  44  45 0
 3-21G
 ****


