%nproc=1
%NoSave
%Mem=1900MB
#P OB98/GEN NMR

erre ene a

0 1
  C     -216.997    -193.912     355.699
  O     -216.285    -192.881     356.371
  P     -214.790    -193.129     356.902
  C     -213.787    -191.733     354.985
  O     -213.818    -193.004     355.622
  C     -212.344    -191.325     354.680
  O     -211.793    -192.260     353.721
  C     -212.234    -189.925     354.067
  O     -211.033    -189.314     354.543
  C     -212.073    -190.174     352.566
  O     -211.377    -189.092     351.931
  C     -211.329    -191.518     352.569
  N     -210.434    -191.991     347.532
  C     -209.996    -191.086     348.438
  N     -210.289    -191.016     349.755
  C     -211.100    -192.020     350.125
  C     -211.626    -193.012     349.308
  C     -211.267    -192.968     347.945
  N     -211.706    -193.891     347.017
  N     -212.445    -193.860     350.026
  C     -212.394    -193.411     351.263
  N     -211.584    -192.301     351.372
  O     -214.603    -194.373     357.704
  O     -214.443    -191.821     357.750
  H     -210.503    -189.023     352.370
  H     -213.924    -192.064     358.540
  H     -209.311    -190.330     348.067
  H     -212.919    -193.831     352.109
  H     -210.246    -191.375     352.670
  H     -213.061    -190.267     352.109
  H     -213.096    -189.291     354.281
  H     -211.755    -191.388     355.591
  H     -214.236    -190.991     355.661
  H     -211.303    -193.860     346.088
  H     -212.188    -194.719     347.358
  H     -214.387    -191.772     354.064
  P     -211.029    -187.691     354.562
  C     -212.094    -187.719     356.944
  O     -212.193    -187.296     355.600
  O     -211.123    -187.113     353.182
  O     -209.658    -187.390     355.332
  H     -209.402    -188.148     355.907
  H     -213.003    -187.383     357.485
  H     -211.230    -187.266     357.423
  H     -212.040    -188.804     357.003
  H     -217.968    -193.555     355.426
  H     -217.097    -194.757     356.347
  H     -216.462    -194.200     354.818

 3  4  5  6  7  8  9  10  11  12  22  25  29  30  31  32 0
 6-311+G(2d,p)
 ****
 33  36  37 0
 6-311+G(2d,p)
 ****
 1  2  13  14  15  16  17  18  19  20  21  23  24  26 0
 3-21G
 ****
 27  28  34  35  38  39  40  41  42  43  44  45  46  47  48 0
 3-21G
 ****


