%nproc=1
%NoSave
%Mem=1900MB
#P OB98/GEN NMR

erre ene a

0 1
  C      240.349    -497.773      49.880
  O      240.847    -497.420      48.607
  P      241.946    -498.283      47.831
  C      243.832    -496.566      48.334
  O      243.113    -497.286      47.342
  C      245.032    -495.784      47.770
  O      246.018    -496.718      47.281
  C      244.589    -494.953      46.559
  O      243.998    -493.686      46.749
  C      245.781    -494.973      45.613
  O      246.583    -493.790      45.720
  C      246.570    -496.200      46.060
  N      247.601    -497.481      41.261
  C      247.967    -496.353      41.962
  N      248.521    -495.356      41.220
  N      247.801    -496.199      43.249
  C      247.144    -497.236      43.825
  C      246.742    -498.417      43.244
  C      246.977    -498.586      41.827
  O      246.584    -499.543      41.160
  N      246.043    -499.207      44.124
  C      245.996    -498.491      45.227
  N      246.615    -497.272      45.084
  O      241.436    -499.315      46.874
  O      242.656    -499.065      49.047
  H      246.067    -493.047      45.357
  H      242.914    -499.947      48.718
  H      247.690    -497.510      40.253
  H      245.494    -498.794      46.144
  H      247.611    -495.929      46.280
  H      245.442    -495.019      44.569
  H      248.541    -495.379      40.211
  H      243.809    -495.529      46.046
  H      248.649    -494.452      41.666
  H      245.530    -495.207      48.549
  H      244.162    -497.292      49.089
  H      243.157    -495.868      48.841
  P      242.641    -493.153      46.082
  C      243.362    -493.059      43.629
  O      243.020    -492.304      44.779
  O      242.114    -492.031      47.097
  O      241.597    -494.194      45.871
  H      241.155    -491.902      46.970
  H      243.883    -492.415      42.918
  H      242.450    -493.436      43.160
  H      244.015    -493.896      43.892
  H      239.627    -497.048      50.194
  H      241.155    -497.801      50.583
  H      239.887    -498.737      49.828

 3  4  5  6  7  8  9  10  11  12  23  26  30  31 0
 6-311+G(2d,p)
 ****
 33  35  36  37  38 0
 6-311+G(2d,p)
 ****
 1  2  13  14  15  16  17  18  19  20  21  22  24  25 0
 3-21G
 ****
 27  28  29  32  34  39  40  41  42  43  44  45  46  47  48  49 0
 3-21G
 ****


