%nproc=1
%NoSave
%Mem=1900MB
#P OB98/GEN NMR

erre ene a

0 1
  C      282.848     348.669      53.368
  O      284.036     348.835      52.620
  P      284.766     347.556      51.971
  C      285.662     345.304      52.823
  O      285.333     346.649      53.168
  C      285.355     344.365      53.989
  O      283.922     344.242      54.184
  C      285.842     342.935      53.783
  O      287.249     342.842      53.909
  C      285.045     342.200      54.849
  O      285.659     342.352      56.144
  C      283.694     342.951      54.805
  N      282.672     342.197      54.098
  C      281.966     341.258      54.859
  O      282.275     341.044      56.032
  N      280.929     340.581      54.259
  C      280.707     340.728      52.993
  N      279.630     340.079      52.467
  C      281.535     341.582      52.120
  C      282.474     342.307      52.738
  O      285.760     347.867      50.898
  O      283.565     346.675      51.393
  H      283.769     346.432      50.459
  H      286.556     341.984      56.065
  H      281.346     341.633      51.054
  H      283.116     342.980      52.178
  H      283.352     343.167      55.818
  H      284.978     341.128      54.639
  H      285.547     342.590      52.786
  H      285.794     344.796      54.900
  H      279.075     339.511      53.099
  H      286.720     345.255      52.579
  H      279.171     340.370      51.604
  H      285.100     345.008      51.933
  P      287.972     341.624      53.143
  C      287.927     339.041      53.307
  O      287.555     340.272      53.891
  O      289.515     341.812      53.521
  O      287.773     341.622      51.664
  H      290.072     341.566      52.762
  H      287.881     338.268      54.080
  H      288.936     339.085      52.895
  H      287.205     338.786      52.510
  H      282.511     349.622      53.718
  H      283.040     348.030      54.204
  H      282.095     348.229      52.748

 3  4  5  6  7  8  9  10  11  12  13  24  27  28  29  30  32 0
 6-311+G(2d,p)
 ****
 34  35 0
 6-311+G(2d,p)
 ****
 1  2  14  15  16  17  18  19  20  21  22  23  25  26 0
 3-21G
 ****
 31  33  36  37  38  39  40  41  42  43  44  45  46 0
 3-21G
 ****


