%nproc=1
%NoSave
%Mem=1900MB
#P OB98/GEN NMR

erre ene a

0 1
  C      -48.073    -197.123     315.525
  O      -46.672    -196.943     315.274
  P      -46.182    -195.755     314.312
  C      -45.409    -197.246     312.311
  O      -46.298    -196.243     312.788
  C      -45.871    -197.743     310.930
  O      -45.953    -196.628     310.002
  C      -44.919    -198.728     310.267
  O      -45.043    -200.040     310.808
  C      -45.366    -198.657     308.810
  O      -46.515    -199.487     308.577
  C      -45.737    -197.157     308.673
  N      -44.732    -196.389     307.945
  C      -45.186    -195.675     306.841
  O      -46.346    -195.710     306.433
  N      -44.236    -194.925     306.186
  C      -42.899    -194.884     306.481
  O      -42.095    -194.205     305.846
  C      -42.471    -195.725     307.600
  C      -43.388    -196.433     308.275
  O      -44.598    -195.753     314.547
  O      -46.762    -194.400     314.605
  H      -47.211    -199.172     309.189
  H      -44.251    -194.864     314.394
  H      -44.543    -194.377     305.388
  H      -41.419    -195.740     307.854
  H      -43.081    -197.065     309.105
  H      -46.705    -197.052     308.157
  H      -44.586    -198.972     308.115
  H      -43.882    -198.358     310.340
  H      -46.874    -198.176     311.028
  H      -45.407    -198.098     313.002
  H      -44.391    -196.832     312.249
  P      -43.940    -200.445     311.930
  C      -42.133    -200.943     310.113
  O      -42.524    -200.179     311.234
  O      -44.115    -202.046     311.931
  O      -44.161    -199.779     313.242
  H      -44.338    -202.394     311.063
  H      -42.985    -201.218     309.483
  H      -41.610    -201.856     310.455
  H      -41.424    -200.343     309.506
  H      -48.213    -197.955     316.183
  H      -48.580    -197.309     314.601
  H      -48.471    -196.239     315.978

 3  4  5  6  7  8  9  10  11  12  13  23  28  29  30  31  32 0
 6-311+G(2d,p)
 ****
 33  34 0
 6-311+G(2d,p)
 ****
 1  2  14  15  16  17  18  19  20  21  22  24  25  26 0
 3-21G
 ****
 27  35  36  37  38  39  40  41  42  43  44  45 0
 3-21G
 ****


