%nproc=1
%NoSave
%Mem=1900MB
#P OB98/GEN NMR

erre ene a

0 1
  C      122.983     -17.655      52.776
  O      121.809     -18.217      53.329
  H      122.717     -16.737      52.246
  H      123.436     -18.353      52.067
  H      123.695     -17.413      53.569
  P      121.985     -19.613      54.100
  C      121.622     -20.967      51.920
  O      121.179     -20.706      53.244
  C      120.961     -22.230      51.376
  O      121.641     -23.410      51.855
  C      119.492     -22.385      51.755
  O      118.661     -21.652      50.872
  C      119.310     -23.890      51.622
  O      119.127     -24.268      50.240
  C      120.644     -24.424      52.159
  N      119.575     -27.915      55.645
  C      119.362     -27.923      54.281
  N      118.746     -29.012      53.770
  N      119.708     -26.946      53.486
  C      120.260     -25.897      54.140
  C      120.522     -25.767      55.484
  C      120.182     -26.880      56.345
  O      120.420     -26.968      57.545
  N      121.109     -24.559      55.761
  C      121.169     -23.949      54.593
  N      120.661     -24.718      53.579
  O      121.080     -19.432      55.410
  O      123.386     -19.975      54.459
  H      119.024     -25.234      50.186
  H      121.528     -19.865      56.162
  H      119.315     -28.708      56.203
  H      121.578     -22.961      54.429
  H      120.952     -25.343      51.647
  H      118.423     -24.236      52.155
  H      118.207     -29.642      54.347
  H      119.321     -22.090      52.797
  H      118.525     -28.983      52.783
  H      121.076     -22.217      50.284
  H      122.708     -21.101      51.931
  H      121.373     -20.115      51.282
  P      117.554     -20.682      51.504
  C      115.633     -22.319      50.894
  O      116.151     -21.001      50.791
  O      117.956     -19.249      50.916
  O      117.524     -20.659      52.995
  H      118.377     -18.711      51.613
  H      114.700     -22.377      50.373
  H      115.482     -22.563      51.925
  H      116.327     -23.010      50.462

 6  7  8  9  10  11  12  13  14  15  26  29  33  34 0
 6-311+G(2d,p)
 ****
 36  38  39  40  41 0
 6-311+G(2d,p)
 ****
 1  2  3  4  5  16  17  18  19  20  21  22  23  24  25 0
 3-21G
 ****
 27  28  30  31  32  35  37  42  43  44  45  46  47 0
 3-21G
 ****
 48  49 0
 3-21G
 ****


