%nproc=1
%NoSave
%Mem=1900MB
#P OB98/GEN NMR

erre ene a

0 1
  C     -296.388    -800.625     457.973
  O     -297.387    -801.296     458.728
  H     -296.499    -800.909     456.917
  H     -295.388    -800.906     458.316
  H     -296.520    -799.543     458.056
  P     -297.274    -801.251     460.325
  C     -295.632    -802.344     461.993
  O     -295.822    -801.889     460.662
  C     -294.183    -802.726     462.262
  O     -293.743    -803.777     461.373
  C     -293.195    -801.581     462.003
  O     -293.304    -800.501     462.907
  C     -291.862    -802.335     461.897
  O     -291.304    -802.632     463.180
  C     -292.312    -803.645     461.206
  N     -291.929    -803.690     459.802
  C     -290.707    -804.312     459.504
  O     -289.972    -804.792     460.387
  N     -290.352    -804.366     458.201
  C     -291.056    -803.810     457.165
  O     -290.660    -803.869     455.999
  C     -292.308    -803.130     457.520
  C     -292.684    -803.108     458.798
  O     -298.402    -801.905     461.075
  O     -297.073    -799.703     460.667
  H     -290.819    -803.471     463.092
  H     -297.233    -799.527     461.624
  H     -289.479    -804.812     457.964
  H     -292.879    -802.669     456.719
  H     -293.614    -802.606     459.090
  H     -291.866    -804.519     461.710
  H     -291.118    -801.780     461.325
  H     -293.382    -801.172     461.001
  H     -294.095    -803.097     463.290
  H     -296.267    -803.235     462.144
  H     -295.957    -801.565     462.695
  P     -293.705    -799.022     462.472
  C     -292.981    -797.317     460.625
  O     -292.718    -798.531     461.308
  O     -294.018    -798.063     463.580
  O     -295.089    -799.297     461.653
  H     -295.673    -798.506     461.817
  H     -292.224    -797.151     459.888
  H     -292.981    -796.507     461.324
  H     -293.937    -797.376     460.148

 6  7  8  9  10  11  12  13  14  15  16  26  31  32  33  34  35 0
 6-311+G(2d,p)
 ****
 36  37 0
 6-311+G(2d,p)
 ****
 1  2  3  4  5  17  18  19  20  21  22  23  24  25 0
 3-21G
 ****
 27  28  29  30  38  39  40  41  42  43  44  45 0
 3-21G
 ****


