%nproc=1
%NoSave
%Mem=1900MB
#P OB98/GEN NMR

erre ene a

0 1
  C       74.556     -28.221     -15.942
  O       74.839     -28.074     -17.339
  P       75.133     -26.653     -18.022
  C       77.100     -27.195     -19.602
  O       75.713     -26.886     -19.498
  C       77.458     -27.722     -20.995
  O       76.886     -29.026     -21.206
  C       76.956     -26.867     -22.151
  O       77.746     -25.703     -22.308
  C       77.040     -27.859     -23.306
  O       78.376     -27.928     -23.833
  C       76.652     -29.183     -22.619
  N       75.276     -29.573     -22.894
  C       75.057     -30.321     -24.054
  O       75.989     -30.571     -24.820
  N       73.780     -30.744     -24.333
  C       72.801     -30.388     -23.561
  N       71.560     -30.843     -23.882
  C       72.975     -29.525     -22.378
  C       74.226     -29.161     -22.106
  O       75.960     -25.735     -17.182
  O       73.689     -26.013     -18.288
  H       78.351     -28.572     -24.566
  H       73.755     -25.042     -18.229
  H       72.129     -29.229     -21.778
  H       74.445     -28.535     -21.249
  H       77.317     -29.992     -22.947
  H       76.381     -27.591     -24.138
  H       75.907     -26.595     -21.982
  H       78.551     -27.824     -21.042
  H       71.475     -31.438     -24.696
  H       77.337     -27.960     -18.854
  H       70.731     -30.627     -23.349
  H       77.679     -26.294     -19.377
  P       77.282     -24.329     -21.631
  C       79.713     -24.087     -20.843
  O       78.591     -23.434     -21.406
  O       76.391     -24.463     -20.441
  O       76.532     -23.556     -22.820
  H       75.824     -23.004     -22.440
  H       80.614     -23.528     -21.106
  H       79.805     -25.110     -21.221
  H       79.612     -24.108     -19.755
  H       74.394     -29.255     -15.718
  H       73.679     -27.661     -15.695
  H       75.384     -27.857     -15.370

 3  4  5  6  7  8  9  10  11  12  13  23  27  28  29  30  32 0
 6-311+G(2d,p)
 ****
 34  35 0
 6-311+G(2d,p)
 ****
 1  2  14  15  16  17  18  19  20  21  22  24  25  26 0
 3-21G
 ****
 31  33  36  37  38  39  40  41  42  43  44  45  46 0
 3-21G
 ****


