%nproc=1
%NoSave
%Mem=1900MB
#P OB98/GEN NMR

erre ene a

0 1
  C     -284.400       2.454    -719.619
  O     -283.390       2.223    -718.657
  P     -282.568       3.442    -718.025
  C     -280.459       2.819    -719.338
  O     -281.411       3.838    -719.061
  C     -279.103       3.138    -718.707
  O     -278.183       2.056    -719.001
  C     -278.453       4.441    -719.196
  O     -277.739       4.995    -718.086
  C     -277.472       3.960    -720.247
  O     -276.438       4.888    -720.510
  C     -277.010       2.661    -719.599
  N     -272.830       1.569    -722.341
  C     -273.121       2.598    -721.517
  N     -274.263       2.830    -720.840
  C     -275.167       1.862    -721.084
  C     -275.023       0.769    -721.928
  C     -273.773       0.629    -722.571
  N     -273.449      -0.431    -723.382
  N     -276.193       0.030    -721.966
  C     -277.016       0.669    -721.150
  N     -276.421       1.741    -720.559
  O     -282.103       3.228    -716.621
  O     -283.583       4.676    -718.110
  H     -275.888       4.981    -719.714
  H     -283.937       4.877    -717.223
  H     -272.323       3.331    -721.371
  H     -278.045       0.396    -720.964
  H     -276.274       2.829    -718.805
  H     -278.001       3.766    -721.182
  H     -279.174       5.174    -719.584
  H     -279.233       3.163    -717.617
  H     -280.344       2.756    -720.425
  H     -272.481      -0.503    -723.678
  H     -274.022      -1.270    -723.351
  H     -280.829       1.859    -718.972
  P     -277.726       6.579    -717.838
  C     -275.193       6.508    -717.482
  O     -276.254       7.087    -718.218
  O     -278.241       7.024    -716.513
  O     -278.623       7.149    -719.042
  H     -278.914       8.062    -718.835
  H     -275.114       7.010    -716.505
  H     -274.261       6.643    -718.032
  H     -275.358       5.437    -717.320
  H     -284.829       1.520    -719.917
  H     -283.975       2.940    -720.472
  H     -285.160       3.077    -719.196

 3  4  5  6  7  8  9  10  11  12  22  25  29  30  31  32 0
 6-311+G(2d,p)
 ****
 33  36  37 0
 6-311+G(2d,p)
 ****
 1  2  13  14  15  16  17  18  19  20  21  23  24  26 0
 3-21G
 ****
 27  28  34  35  38  39  40  41  42  43  44  45  46  47  48 0
 3-21G
 ****


