%nproc=1
%NoSave
%Mem=1900MB
#P OB98/GEN NMR

erre ene a

0 1
  C       70.646     191.589    -258.814
  O       71.725     190.679    -258.755
  H       70.858     192.337    -259.581
  H       70.526     192.094    -257.852
  H       69.722     191.064    -259.078
  P       71.613     189.507    -257.662
  C       73.105     190.814    -255.990
  O       71.845     190.206    -256.234
  C       73.132     191.441    -254.599
  O       72.238     192.577    -254.532
  C       72.722     190.498    -253.474
  O       73.808     189.684    -253.068
  C       72.295     191.487    -252.398
  O       73.432     192.017    -251.686
  C       71.608     192.583    -253.226
  N       67.277     192.059    -250.686
  C       68.557     192.282    -250.227
  N       68.712     192.318    -248.883
  N       69.591     192.444    -251.004
  C       69.290     192.350    -252.321
  C       68.057     192.147    -252.904
  C       66.914     192.000    -252.027
  O       65.743     191.868    -252.374
  N       68.150     192.133    -254.271
  C       69.440     192.284    -254.514
  N       70.172     192.403    -253.362
  O       72.958     188.665    -257.878
  O       70.402     188.646    -257.770
  H       73.979     192.536    -252.300
  H       72.788     187.730    -257.655
  H       66.515     191.958    -250.037
  H       69.885     192.312    -255.500
  H       71.762     193.579    -252.794
  H       71.650     191.017    -251.651
  H       68.047     191.880    -248.259
  H       71.860     189.890    -253.772
  H       69.652     192.459    -248.537
  H       74.149     191.822    -254.430
  H       73.275     191.594    -256.739
  H       73.893     190.059    -256.076
  P       73.498     188.151    -252.703
  C       73.528     188.823    -250.189
  O       72.836     188.159    -251.241
  O       74.948     187.528    -252.445
  O       72.738     187.403    -253.750
  H       74.905     186.553    -252.485
  H       72.964     188.741    -249.284
  H       73.652     189.856    -250.440
  H       74.488     188.371    -250.053

 6  7  8  9  10  11  12  13  14  15  26  29  33  34 0
 6-311+G(2d,p)
 ****
 36  38  39  40  41 0
 6-311+G(2d,p)
 ****
 1  2  3  4  5  16  17  18  19  20  21  22  23  24  25 0
 3-21G
 ****
 27  28  30  31  32  35  37  42  43  44  45  46  47 0
 3-21G
 ****
 48  49 0
 3-21G
 ****


