%nproc=1
%NoSave
%Mem=1900MB
#P OB98/GEN NMR

erre ene a

0 1
  C     -318.617     313.710     170.309
  O     -319.960     313.401     170.660
  P     -321.001     314.619     170.759
  C     -322.946     313.511     169.385
  O     -322.483     314.020     170.625
  C     -324.379     312.963     169.515
  O     -324.323     311.673     170.178
  C     -325.329     313.806     170.364
  O     -326.679     313.434     170.059
  C     -324.987     313.347     171.769
  O     -326.012     313.681     172.700
  C     -324.734     311.830     171.566
  N     -323.703     311.278     172.468
  C     -324.096     310.337     173.420
  O     -325.252     309.931     173.562
  N     -323.107     309.881     174.256
  C     -321.791     310.233     174.212
  O     -320.963     309.860     175.040
  C     -321.407     311.121     173.101
  C     -322.364     311.603     172.305
  O     -320.771     315.416     169.385
  O     -320.800     315.490     171.954
  H     -326.132     314.663     172.642
  H     -320.279     316.241     169.556
  H     -323.387     309.245     174.999
  H     -320.357     311.371     172.990
  H     -322.097     312.274     171.489
  H     -325.649     311.254     171.724
  H     -324.066     313.833     172.102
  H     -325.206     314.888     170.249
  H     -324.797     312.804     168.515
  H     -322.270     312.734     169.030
  H     -322.929     314.309     168.632
  P     -327.450     314.254     168.914
  C     -328.435     312.185     167.750
  O     -328.713     313.359     168.494
  O     -326.603     314.762     167.790
  O     -328.131     315.457     169.736
  H     -328.372     316.177     169.126
  H     -329.209     311.442     167.969
  H     -327.454     311.762     168.017
  H     -328.447     312.417     166.679
  H     -318.040     312.810     170.281
  H     -318.203     314.377     171.036
  H     -318.598     314.176     169.346

 3  4  5  6  7  8  9  10  11  12  13  23  28  29  30  31  32 0
 6-311+G(2d,p)
 ****
 33  34 0
 6-311+G(2d,p)
 ****
 1  2  14  15  16  17  18  19  20  21  22  24  25  26  27 0
 3-21G
 ****
 35  36  37  38  39  40  41  42  43  44  45 0
 3-21G
 ****


