%nproc=1
%NoSave
%Mem=1900MB
#P OB98/GEN NMR

erre ene a

0 1
  C      783.970    -795.801    -161.844
  O      785.220    -796.057    -162.449
  H      783.175    -796.197    -162.483
  H      783.829    -794.717    -161.744
  H      783.904    -796.275    -160.858
  P      786.529    -795.920    -161.528
  C      787.824    -794.408    -163.192
  O      787.762    -795.659    -162.520
  C      788.668    -794.524    -164.460
  O      788.074    -795.557    -165.313
  C      788.741    -793.225    -165.295
  O      790.047    -793.120    -165.871
  C      787.743    -793.486    -166.406
  O      788.009    -792.695    -167.557
  C      787.943    -794.981    -166.627
  N      785.711    -795.009    -171.123
  C      786.923    -794.475    -170.723
  N      787.630    -793.791    -171.656
  N      787.407    -794.599    -169.520
  C      786.600    -795.330    -168.695
  C      785.380    -795.902    -168.957
  C      784.854    -795.740    -170.296
  O      783.778    -796.154    -170.707
  N      784.868    -796.496    -167.833
  C      785.760    -796.267    -166.890
  N      786.832    -795.561    -167.365
  O      786.757    -797.425    -161.029
  O      786.407    -794.966    -160.390
  H      787.932    -791.756    -167.311
  H      786.341    -797.554    -160.155
  H      785.377    -794.868    -172.057
  H      785.670    -796.573    -165.856
  H      788.860    -795.207    -167.193
  H      786.728    -793.264    -166.056
  H      787.338    -793.680    -172.615
  H      788.513    -792.322    -164.719
  H      788.542    -793.433    -171.387
  H      789.668    -794.866    -164.192
  H      788.291    -793.669    -162.527
  H      786.813    -794.072    -163.423
  P      790.688    -791.664    -166.037
  C      791.685    -791.709    -168.443
  O      791.932    -791.763    -167.050
  O      791.378    -791.411    -164.621
  O      789.690    -790.594    -166.356
  H      791.324    -790.463    -164.390
  H      792.611    -791.788    -168.973
  H      791.213    -790.780    -168.686
  H      791.044    -792.519    -168.723

 6  7  8  9  10  11  12  13  14  15  26  29  33  34 0
 6-311+G(2d,p)
 ****
 36  38  39  40  41 0
 6-311+G(2d,p)
 ****
 1  2  3  4  5  16  17  18  19  20  21  22  23  24  25 0
 3-21G
 ****
 27  28  30  31  32  35  37  42  43  44  45  46  47 0
 3-21G
 ****
 48  49 0
 3-21G
 ****


