%nproc=1
%NoSave
%Mem=1900MB
#P OB98/GEN NMR

erre ene a

0 1
  C     -257.749     -46.362     400.824
  O     -256.928     -46.422     401.976
  H     -257.201     -46.789     399.979
  H     -258.005     -45.326     400.582
  H     -258.663     -46.941     400.978
  P     -257.450     -45.715     403.316
  C     -256.093     -47.546     404.543
  O     -257.318     -46.822     404.465
  C     -256.362     -48.983     404.977
  O     -257.295     -49.613     404.078
  C     -255.115     -49.857     404.961
  O     -254.288     -49.580     406.071
  C     -255.737     -51.241     404.933
  O     -256.161     -51.647     406.239
  C     -256.951     -51.014     404.001
  N     -256.688     -51.418     402.623
  C     -256.196     -52.716     402.447
  O     -256.009     -53.449     403.415
  N     -255.905     -53.134     401.171
  C     -256.103     -52.342     400.166
  N     -255.794     -52.818     398.931
  C     -256.633     -50.971     400.308
  C     -256.897     -50.577     401.554
  O     -258.792     -45.051     403.250
  O     -256.283     -44.678     403.673
  H     -255.341     -51.796     406.751
  H     -256.449     -43.817     403.247
  H     -256.789     -50.347     399.441
  H     -257.292     -49.585     401.747
  H     -257.822     -51.577     404.366
  H     -255.034     -51.987     404.567
  H     -254.568     -49.712     404.023
  H     -256.817     -48.963     405.976
  H     -255.422     -53.760     398.882
  H     -255.463     -47.037     405.281
  H     -255.987     -52.327     398.072
  H     -255.576     -47.531     403.577
  P     -253.070     -48.543     405.945
  C     -253.431     -47.107     408.057
  O     -253.585     -47.191     406.641
  O     -252.510     -48.382     404.572
  O     -252.007     -49.106     407.004
  H     -251.560     -49.921     406.668
  H     -253.808     -46.167     408.402
  H     -252.394     -47.189     408.309
  H     -253.975     -47.902     408.523

 6  7  8  9  10  11  12  13  14  15  16  26  30  31  32  33  35 0
 6-311+G(2d,p)
 ****
 37  38 0
 6-311+G(2d,p)
 ****
 1  2  3  4  5  17  18  19  20  21  22  23  24  25 0
 3-21G
 ****
 27  28  29  34  36  39  40  41  42  43  44  45  46 0
 3-21G
 ****


