%nproc=1
%NoSave
%Mem=1900MB
#P OB98/GEN NMR

erre ene a

0 1
  C      748.508    -554.163    -373.583
  O      748.459    -553.410    -374.794
  P      747.014    -553.079    -375.427
  C      744.980    -551.600    -374.860
  O      746.229    -552.117    -374.411
  C      744.793    -550.142    -374.415
  O      744.893    -550.070    -372.961
  C      745.864    -549.168    -374.951
  O      745.617    -548.523    -376.189
  C      745.816    -548.051    -373.882
  O      744.734    -547.154    -374.173
  C      745.503    -548.812    -372.592
  N      749.999    -546.912    -371.002
  C      749.043    -546.410    -371.794
  N      747.873    -546.979    -372.172
  C      747.738    -548.202    -371.630
  C      748.635    -548.846    -370.786
  C      749.818    -548.164    -370.483
  N      750.801    -548.665    -369.661
  N      748.151    -550.085    -370.430
  C      746.993    -550.190    -371.058
  N      746.688    -549.069    -371.777
  O      746.237    -554.244    -375.931
  O      747.391    -552.079    -376.610
  H      744.827    -546.410    -373.548
  H      746.806    -552.255    -377.372
  H      749.227    -545.407    -372.194
  H      746.349    -551.063    -371.010
  H      744.795    -548.283    -371.958
  H      746.733    -547.464    -373.858
  H      746.854    -549.629    -374.941
  H      743.792    -549.793    -374.704
  H      744.167    -552.204    -374.452
  H      751.637    -548.123    -369.536
  H      750.712    -549.625    -369.326
  H      744.946    -551.713    -375.940
  P      746.790    -548.422    -377.303
  C      747.780    -550.225    -378.927
  O      746.690    -549.777    -378.147
  O      748.154    -548.106    -376.777
  O      746.211    -547.325    -378.316
  H      745.430    -547.622    -378.815
  H      747.597    -551.257    -379.233
  H      748.715    -550.196    -378.336
  H      747.897    -549.593    -379.820
  H      749.528    -554.301    -373.290
  H      748.049    -555.117    -373.738
  H      747.984    -553.636    -372.814

 3  4  5  6  7  8  9  10  11  12  22  25  29  30  31  32 0
 6-311+G(2d,p)
 ****
 33  36  37 0
 6-311+G(2d,p)
 ****
 1  2  13  14  15  16  17  18  19  20  21  23  24  26 0
 3-21G
 ****
 27  28  34  35  38  39  40  41  42  43  44  45  46  47  48 0
 3-21G
 ****


