%nproc=1
%NoSave
%Mem=1900MB
#P OB98/GEN NMR

erre ene a

0 1
  C     -240.067      65.569     147.703
  O     -239.807      64.383     146.973
  P     -239.764      64.497     145.372
  C     -237.481      63.506     144.606
  O     -238.224      64.667     144.959
  C     -235.984      63.814     144.627
  O     -235.520      63.929     145.986
  C     -235.109      62.744     143.986
  O     -235.177      62.804     142.572
  C     -233.750      63.110     144.574
  O     -233.190      64.227     143.864
  C     -234.123      63.531     146.007
  N     -231.143      61.693     149.745
  C     -231.024      62.774     148.945
  N     -231.846      63.186     147.957
  C     -232.894      62.354     147.837
  C     -233.140      61.202     148.562
  C     -232.211      60.877     149.563
  N     -232.335      59.768     150.374
  N     -234.302      60.591     148.138
  C     -234.756      61.369     147.179
  N     -233.948      62.454     146.967
  O     -240.381      65.944     145.094
  O     -240.506      63.422     144.643
  H     -232.881      63.895     142.999
  H     -240.893      65.954     144.262
  H     -230.149      63.395     149.121
  H     -235.661      61.194     146.614
  H     -233.538      64.388     146.360
  H     -233.024      62.290     144.524
  H     -235.409      61.748     144.333
  H     -235.831      64.781     144.127
  H     -237.763      63.183     143.598
  H     -231.548      59.528     150.961
  H     -233.047      59.089     150.143
  H     -237.725      62.702     145.307
  P     -235.686      61.488     141.804
  C     -237.321      62.504     140.101
  O     -237.185      61.860     141.357
  O     -235.923      60.478     143.020
  O     -234.783      61.006     140.721
  H     -236.440      60.882     143.738
  H     -238.382      62.649     139.901
  H     -236.888      61.884     139.309
  H     -236.828      63.479     140.125
  H     -240.067      65.350     148.750
  H     -241.022      65.960     147.420
  H     -239.308      66.293     147.490

 3  4  5  6  7  8  9  10  11  12  22  25  29  30  31  32 0
 6-311+G(2d,p)
 ****
 33  36  37 0
 6-311+G(2d,p)
 ****
 1  2  13  14  15  16  17  18  19  20  21  23  24  26 0
 3-21G
 ****
 27  28  34  35  38  39  40  41  42  43  44  45  46  47  48 0
 3-21G
 ****


