%nproc=1
%NoSave
%Mem=1900MB
#P OB98/GEN NMR

erre ene a

0 1
  C     -609.933    -701.025     171.475
  O     -610.874    -701.974     171.013
  H     -609.323    -701.486     172.263
  H     -610.449    -700.162     171.897
  H     -609.266    -700.711     170.672
  P     -611.761    -701.620     169.729
  C     -610.436    -703.226     168.199
  O     -610.852    -701.889     168.435
  C     -609.339    -703.276     167.132
  O     -608.124    -702.657     167.689
  C     -608.952    -704.696     166.675
  O     -608.519    -704.601     165.311
  C     -607.786    -704.998     167.613
  O     -607.070    -706.137     167.245
  C     -607.064    -703.641     167.554
  N     -606.043    -703.430     168.564
  C     -604.745    -703.154     168.134
  O     -604.413    -703.057     166.954
  N     -603.809    -702.954     169.128
  C     -604.042    -703.015     170.473
  O     -603.174    -702.821     171.308
  C     -605.423    -703.334     170.876
  C     -606.357    -703.520     169.920
  O     -612.445    -700.294     169.758
  O     -612.824    -702.822     169.663
  H     -613.684    -702.522     170.024
  H     -606.698    -706.002     166.341
  H     -602.865    -702.754     168.834
  H     -605.655    -703.392     171.924
  H     -607.390    -703.726     170.177
  H     -606.620    -703.496     166.553
  H     -608.165    -705.199     168.625
  H     -609.789    -705.405     166.752
  H     -609.640    -702.654     166.283
  H     -611.312    -703.793     167.843
  H     -610.071    -703.668     169.136
  P     -609.517    -704.621     164.066
  C     -609.413    -702.063     163.642
  O     -610.227    -703.174     163.974
  O     -610.481    -705.755     164.072
  O     -608.575    -704.657     162.761
  H     -609.061    -705.074     162.016
  H     -610.012    -701.177     163.617
  H     -608.969    -702.220     162.681
  H     -608.643    -701.953     164.377

 6  7  8  9  10  11  12  13  14  15  16  27  31  32  33  34  35 0
 6-311+G(2d,p)
 ****
 36  37 0
 6-311+G(2d,p)
 ****
 1  2  3  4  5  17  18  19  20  21  22  23  24  25 0
 3-21G
 ****
 26  28  29  30  38  39  40  41  42  43  44  45 0
 3-21G
 ****


