%nproc=1
%NoSave
%Mem=1900MB
#P OB98/GEN NMR

erre ene a

0 1
  C     -169.534     133.266      69.959
  O     -169.567     131.853      69.770
  P     -170.357     131.296      68.492
  C     -172.483     130.495      69.804
  O     -171.927     131.350      68.824
  C     -173.683     129.710      69.235
  O     -174.675     130.664      68.773
  C     -173.374     128.831      68.028
  O     -174.424     127.871      67.881
  C     -173.439     129.828      66.894
  O     -173.590     129.183      65.632
  C     -174.608     130.745      67.323
  N     -174.442     132.153      66.900
  C     -175.019     132.557      65.697
  O     -175.660     131.806      64.959
  N     -174.806     133.856      65.332
  C     -174.125     134.789      66.055
  O     -173.889     135.918      65.639
  C     -173.659     134.352      67.377
  C     -173.824     133.075      67.729
  O     -170.011     129.736      68.486
  O     -169.978     131.964      67.211
  H     -173.533     129.889      64.949
  H     -169.367     129.538      67.778
  H     -175.163     134.144      64.432
  H     -173.169     135.084      68.008
  H     -173.465     132.732      68.696
  H     -175.558     130.387      66.910
  H     -172.508     130.402      66.852
  H     -172.408     128.321      68.072
  H     -174.142     129.121      70.038
  H     -172.790     131.075      70.677
  H     -171.720     129.786      70.151
  P     -174.019     126.367      67.502
  C     -174.876     126.396      65.078
  O     -173.741     126.357      65.922
  O     -174.931     125.296      68.006
  O     -172.546     126.227      68.118
  H     -172.320     125.283      68.218
  H     -174.601     126.891      64.144
  H     -175.703     126.942      65.543
  H     -175.196     125.373      64.859
  H     -168.977     133.495      70.844
  H     -170.533     133.636      70.061
  H     -169.067     133.728      69.114

 3  4  5  6  7  8  9  10  11  12  13  23  28  29  30  31  32 0
 6-311+G(2d,p)
 ****
 33  34 0
 6-311+G(2d,p)
 ****
 1  2  14  15  16  17  18  19  20  21  22  24  25  26  27 0
 3-21G
 ****
 35  36  37  38  39  40  41  42  43  44  45 0
 3-21G
 ****


