%nproc=1
%NoSave
%Mem=1900MB
#P OB98/GEN NMR

erre ene a

0 1
  C       99.253    -207.873    -215.862
  O       98.272    -207.273    -215.014
  P       97.980    -205.709    -214.915
  C       96.744    -205.346    -217.208
  O       96.684    -205.373    -215.788
  C       95.340    -205.452    -217.826
  O       94.652    -206.595    -217.229
  C       94.476    -204.213    -217.543
  O       93.710    -203.785    -218.665
  C       93.713    -204.608    -216.290
  O       92.547    -203.830    -216.071
  C       93.497    -206.103    -216.506
  N       90.566    -209.329    -213.843
  C       90.303    -208.697    -215.042
  N       89.102    -208.938    -215.608
  N       91.143    -207.885    -215.632
  C       92.278    -207.671    -214.927
  C       92.639    -208.222    -213.718
  C       91.727    -209.157    -213.103
  O       91.917    -209.762    -212.044
  N       93.875    -207.772    -213.315
  C       94.242    -206.931    -214.263
  N       93.308    -206.844    -215.268
  O       99.161    -204.812    -215.090
  O       97.450    -205.518    -213.401
  H       92.031    -203.820    -216.901
  H       97.740    -204.624    -213.118
  H       89.891    -209.961    -213.444
  H       95.177    -206.377    -214.278
  H       92.613    -206.308    -217.113
  H       94.377    -204.433    -215.431
  H       88.363    -209.452    -215.151
  H       95.109    -203.342    -217.320
  H       88.830    -208.309    -216.364
  H       95.440    -205.637    -218.901
  H       97.345    -206.214    -217.501
  H       97.262    -204.452    -217.557
  P       94.070    -202.678    -219.759
  C       95.956    -204.099    -220.763
  O       94.751    -203.401    -221.014
  O       95.283    -201.847    -219.124
  O       92.943    -201.759    -220.109
  H       95.019    -200.915    -219.007
  H       96.447    -204.311    -221.717
  H       95.738    -205.043    -220.258
  H       96.628    -203.495    -220.144
  H       99.237    -208.935    -215.730
  H      100.222    -207.496    -215.609
  H       99.034    -207.637    -216.883

 3  4  5  6  7  8  9  10  11  12  23  26  30  31 0
 6-311+G(2d,p)
 ****
 33  35  36  37  38 0
 6-311+G(2d,p)
 ****
 1  2  13  14  15  16  17  18  19  20  21  22  24  25 0
 3-21G
 ****
 27  28  29  32  34  39  40  41  42  43  44  45  46  47  48  49 0
 3-21G
 ****


