%nproc=1
%NoSave
%Mem=1900MB
#P OB98/GEN NMR

erre ene a

0 1
  C       -1.139      60.043      14.524
  O       -1.340      58.949      15.394
  H       -1.523      60.946      15.005
  H       -1.676      59.891      13.585
  H       -0.072      60.182      14.325
  P       -0.922      57.485      14.898
  C        1.629      57.533      14.507
  O        0.576      57.231      15.416
  C        2.818      56.596      14.746
  O        3.791      56.843      13.701
  C        3.495      56.840      16.103
  O        3.625      55.655      16.885
  C        4.771      57.583      15.729
  O        5.832      57.435      16.650
  C        5.073      57.065      14.318
  N        5.881      57.978      13.513
  C        7.237      57.690      13.392
  O        7.803      56.718      13.887
  N        7.965      58.579      12.643
  C        7.485      59.697      12.031
  O        8.186      60.453      11.368
  C        6.050      59.960      12.215
  C        5.325      59.102      12.937
  O       -1.136      57.207      13.449
  O       -1.790      56.502      15.818
  H        6.591      57.956      16.317
  H       -2.547      56.161      15.306
  H        8.947      58.375      12.539
  H        5.637      60.844      11.751
  H        4.263      59.264      13.091
  H        5.597      56.111      14.365
  H        4.541      58.654      15.675
  H        2.879      57.491      16.735
  H        2.477      55.560      14.643
  H        1.927      58.574      14.670
  H        1.270      57.421      13.478
  P        3.071      55.481      18.371
  C        0.599      54.635      18.155
  O        1.969      54.322      18.359
  O        2.716      56.745      19.079
  O        4.315      54.816      19.154
  H        4.274      55.148      20.074
  H        0.020      53.735      18.180
  H        0.479      55.110      17.204
  H        0.265      55.296      18.928

 6  7  8  9  10  11  12  13  14  15  16  26  31  32  33  34  35 0
 6-311+G(2d,p)
 ****
 36  37 0
 6-311+G(2d,p)
 ****
 1  2  3  4  5  17  18  19  20  21  22  23  24  25 0
 3-21G
 ****
 27  28  29  30  38  39  40  41  42  43  44  45 0
 3-21G
 ****


