%nproc=1
%NoSave
%Mem=1900MB
#P OB98/GEN NMR

erre ene a

0 1
  C     -144.978     215.888     344.229
  O     -143.657     215.447     344.439
  H     -145.659     215.042     344.371
  H     -145.105     216.266     343.210
  H     -145.245     216.666     344.951
  P     -142.457     216.490     344.230
  C     -141.866     216.375     346.742
  O     -142.217     217.211     345.642
  C     -141.243     217.209     347.867
  O     -140.088     217.897     347.318
  C     -142.209     218.263     348.423
  O     -142.343     218.196     349.845
  C     -141.704     219.559     347.810
  O     -142.016     220.719     348.556
  C     -140.205     219.300     347.620
  N     -139.592     220.106     346.573
  C     -139.296     221.433     346.876
  O     -139.501     221.976     347.962
  N     -138.725     222.164     345.865
  C     -138.444     221.705     344.604
  O     -137.935     222.410     343.737
  C     -138.806     220.306     344.336
  C     -139.354     219.577     345.322
  O     -142.607     217.420     343.074
  O     -141.160     215.560     344.074
  H     -141.930     221.486     347.952
  H     -140.886     215.540     343.133
  H     -138.492     223.113     346.076
  H     -138.607     219.915     343.349
  H     -139.630     218.541     345.157
  H     -139.663     219.496     348.549
  H     -142.173     219.685     346.823
  H     -143.233     218.073     348.071
  H     -140.887     216.529     348.654
  H     -141.150     215.626     346.380
  H     -142.761     215.864     347.115
  P     -143.527     217.459     350.623
  C     -141.847     215.766     351.735
  O     -143.041     215.981     350.990
  O     -144.890     217.590     350.021
  O     -143.558     218.195     352.056
  H     -144.489     218.186     352.354
  H     -141.698     214.716     351.875
  H     -141.930     216.244     352.688
  H     -141.015     216.176     351.202

 6  7  8  9  10  11  12  13  14  15  16  26  31  32  33  34  35 0
 6-311+G(2d,p)
 ****
 36  37 0
 6-311+G(2d,p)
 ****
 1  2  3  4  5  17  18  19  20  21  22  23  24  25 0
 3-21G
 ****
 27  28  29  30  38  39  40  41  42  43  44  45 0
 3-21G
 ****


