%nproc=1
%NoSave
%Mem=1900MB
#P OB98/GEN NMR

erre ene a

0 1
  C        5.710     -31.487    -188.834
  O        5.054     -30.590    -189.707
  H        6.699     -31.085    -188.599
  H        5.832     -32.465    -189.305
  H        5.146     -31.589    -187.902
  P        3.623     -31.007    -190.295
  C        2.630     -29.265    -188.662
  O        2.626     -29.793    -189.980
  C        1.268     -28.651    -188.316
  O        1.283     -28.233    -186.922
  C        0.914     -27.413    -189.159
  O       -0.515     -27.371    -189.275
  C        1.413     -26.293    -188.268
  O        0.907     -25.046    -188.675
  C        0.986     -26.820    -186.895
  N        1.659     -26.140    -185.801
  C        0.919     -25.164    -185.130
  O       -0.233     -24.908    -185.479
  N        1.511     -24.479    -184.099
  C        2.755     -24.701    -183.810
  N        3.287     -23.977    -182.789
  C        3.591     -25.681    -184.534
  C        2.984     -26.362    -185.504
  O        3.121     -32.352    -189.887
  O        3.816     -30.915    -191.882
  H        1.333     -24.314    -188.176
  H        3.887     -31.812    -192.258
  H        4.628     -25.816    -184.267
  H        3.516     -27.104    -186.093
  H       -0.098     -26.714    -186.756
  H        2.503     -26.219    -188.319
  H        1.373     -27.426    -190.150
  H        0.498     -29.426    -188.408
  H        2.681     -23.309    -182.328
  H        3.408     -28.497    -188.618
  H        4.247     -24.049    -182.489
  H        2.872     -30.053    -187.941
  P       -1.273     -27.334    -190.688
  C       -0.398     -29.592    -191.575
  O       -1.540     -28.833    -191.185
  O       -0.615     -26.461    -191.707
  O       -2.742     -26.786    -190.355
  H       -3.078     -26.288    -191.123
  H       -0.707     -30.569    -191.884
  H        0.274     -29.676    -190.747
  H        0.096     -29.101    -192.387

 6  7  8  9  10  11  12  13  14  15  16  26  30  31  32  33  35 0
 6-311+G(2d,p)
 ****
 37  38 0
 6-311+G(2d,p)
 ****
 1  2  3  4  5  17  18  19  20  21  22  23  24  25 0
 3-21G
 ****
 27  28  29  34  36  39  40  41  42  43  44  45  46 0
 3-21G
 ****


