%nproc=1
%NoSave
%Mem=1900MB
#P OB98/GEN NMR

erre ene a

0 1
  C       -1.256     117.527      10.584
  O       -1.329     117.248      11.969
  P       -1.620     118.430      13.007
  C       -0.473     117.133      14.906
  O       -0.513     118.348      14.164
  C        0.750     117.111      15.820
  O        1.930     116.749      15.073
  C        1.069     118.455      16.462
  O        0.185     118.726      17.532
  C        2.522     118.248      16.871
  O        2.602     117.530      18.113
  C        3.056     117.387      15.717
  N        7.074     120.457      15.061
  C        6.482     119.975      16.174
  N        5.386     119.192      16.268
  C        4.888     118.932      15.048
  C        5.362     119.382      13.826
  C        6.529     120.164      13.856
  N        7.178     120.609      12.726
  N        4.556     118.927      12.800
  C        3.612     118.226      13.393
  N        3.809     118.148      14.743
  O       -3.030     118.527      13.487
  O       -1.203     119.751      12.205
  H        2.074     118.024      18.768
  H       -1.980     120.335      12.118
  H        6.954     120.248      17.113
  H        2.782     117.746      12.891
  H        3.709     116.583      16.078
  H        3.060     119.191      17.007
  H        1.018     119.250      15.709
  H        0.589     116.344      16.589
  H       -0.423     116.300      14.199
  H        8.082     121.036      12.856
  H        6.968     120.155      11.840
  H       -1.389     117.039      15.498
  P       -0.376     120.209      17.745
  C       -0.667     120.033      20.287
  O        0.034     120.656      19.229
  O       -1.812     120.415      17.392
  O        0.581     121.108      16.828
  H        0.078     121.870      16.483
  H       -1.655     120.488      20.390
  H       -0.109     120.181      21.214
  H       -0.776     118.959      20.105
  H       -1.056     116.623      10.048
  H       -0.470     118.230      10.403
  H       -2.187     117.939      10.254

 3  4  5  6  7  8  9  10  11  12  22  25  29  30  31  32 0
 6-311+G(2d,p)
 ****
 33  36  37 0
 6-311+G(2d,p)
 ****
 1  2  13  14  15  16  17  18  19  20  21  23  24  26 0
 3-21G
 ****
 27  28  34  35  38  39  40  41  42  43  44  45  46  47  48 0
 3-21G
 ****


