%nproc=1
%NoSave
%Mem=1900MB
#P OB98/GEN NMR

erre ene a

0 1
  C      -56.553     231.903     118.162
  O      -56.483     232.151     119.569
  P      -55.185     231.620     120.351
  C      -54.739     233.946     121.471
  O      -55.038     232.565     121.635
  C      -55.071     234.709     122.754
  O      -56.502     234.870     122.897
  C      -54.614     234.013     124.026
  O      -53.210     234.123     124.205
  C      -55.449     234.743     125.071
  O      -54.846     236.007     125.397
  C      -56.774     234.974     124.314
  N      -57.832     234.055     124.722
  C      -58.533     234.412     125.871
  O      -58.278     235.419     126.528
  N      -59.532     233.555     126.250
  C      -59.865     232.389     125.627
  O      -60.777     231.664     126.009
  C      -59.054     232.039     124.451
  C      -58.089     232.875     124.055
  O      -54.019     232.097     119.369
  O      -55.229     230.153     120.622
  H      -54.208     232.947     118.937
  H      -54.052     235.805     125.931
  H      -60.060     233.801     127.073
  H      -59.275     231.107     123.944
  H      -57.477     232.631     123.192
  H      -57.133     235.996     124.480
  H      -55.544     234.177     126.002
  H      -54.898     232.955     123.998
  H      -54.617     235.705     122.683
  H      -55.323     234.359     120.647
  H      -53.682     234.048     121.210
  P      -52.556     233.253     125.387
  C      -50.808     232.028     123.878
  O      -51.052     232.927     124.937
  O      -53.325     231.861     125.213
  O      -52.704     233.877     126.737
  H      -53.394     231.577     124.288
  H      -49.795     232.201     123.500
  H      -51.516     232.170     123.059
  H      -50.875     231.005     124.248
  H      -57.464     232.308     117.773
  H      -56.527     230.848     117.984
  H      -55.720     232.367     117.676

 3  4  5  6  7  8  9  10  11  12  13  24  28  29  30  31  32 0
 6-311+G(2d,p)
 ****
 33  34 0
 6-311+G(2d,p)
 ****
 1  2  14  15  16  17  18  19  20  21  22  23  25  26  27 0
 3-21G
 ****
 35  36  37  38  39  40  41  42  43  44  45 0
 3-21G
 ****


