%nproc=1
%NoSave
%Mem=1900MB
#P OB98/GEN NMR

erre ene a

0 1
  C     -566.207    -474.235     185.032
  O     -564.912    -473.695     185.137
  P     -564.781    -472.172     185.628
  C     -562.846    -472.720     187.299
  O     -563.284    -471.967     186.169
  C     -561.385    -472.360     187.633
  O     -560.534    -472.624     186.490
  C     -561.181    -470.889     187.963
  O     -561.582    -470.596     189.294
  C     -559.687    -470.714     187.747
  O     -558.936    -471.146     188.887
  C     -559.439    -471.673     186.542
  N     -559.285    -470.960     185.276
  C     -558.042    -470.348     185.071
  O     -557.145    -470.392     185.909
  N     -557.904    -469.663     183.887
  C     -558.881    -469.475     182.940
  O     -558.713    -468.802     181.924
  C     -560.179    -470.111     183.227
  C     -560.320    -470.807     184.367
  O     -565.671    -472.106     186.955
  O     -565.202    -471.157     184.610
  H     -558.021    -471.258     188.581
  H     -566.109    -471.224     187.015
  H     -557.011    -469.241     183.709
  H     -560.964    -469.993     182.513
  H     -561.270    -471.272     184.607
  H     -558.528    -472.266     186.716
  H     -559.398    -469.686     187.541
  H     -561.732    -470.262     187.252
  H     -561.057    -472.996     188.460
  H     -562.916    -473.790     187.077
  H     -563.491    -472.491     188.148
  P     -562.250    -469.154     189.568
  C     -563.182    -469.632     191.963
  O     -562.225    -468.975     191.157
  O     -563.769    -469.456     189.195
  O     -561.609    -468.057     188.747
  H     -564.031    -470.364     189.402
  H     -563.424    -470.630     191.556
  H     -564.088    -469.034     192.019
  H     -562.780    -469.768     192.966
  H     -566.144    -475.249     184.697
  H     -566.777    -473.662     184.331
  H     -566.685    -474.205     185.989

 3  4  5  6  7  8  9  10  11  12  13  23  28  29  30  31  32 0
 6-311+G(2d,p)
 ****
 33  34 0
 6-311+G(2d,p)
 ****
 1  2  14  15  16  17  18  19  20  21  22  24  25  26 0
 3-21G
 ****
 27  35  36  37  38  39  40  41  42  43  44  45 0
 3-21G
 ****


