%nproc=1
%NoSave
%Mem=1900MB
#P OB98/GEN NMR

erre ene a

0 1
  C      131.998    -287.110      43.557
  O      132.303    -285.860      42.966
  P      131.546    -284.537      43.455
  C      129.327    -283.393      42.719
  O      130.068    -284.588      42.837
  C      127.945    -283.656      42.107
  O      127.276    -284.643      42.930
  C      127.017    -282.446      42.072
  O      125.971    -282.701      41.133
  C      126.453    -282.447      43.475
  O      125.240    -281.704      43.569
  C      126.332    -283.960      43.788
  N      126.624    -284.246      45.204
  C      125.577    -284.739      45.975
  O      124.470    -285.009      45.509
  N      125.816    -284.831      47.319
  C      126.963    -284.439      47.945
  O      127.050    -284.238      49.150
  C      128.104    -284.157      47.059
  C      127.880    -284.048      45.747
  O      132.271    -283.383      42.616
  O      131.611    -284.282      44.920
  H      124.998    -281.678      44.523
  H      132.970    -282.964      43.153
  H      125.012    -285.051      47.895
  H      129.071    -283.986      47.512
  H      128.692    -283.791      45.075
  H      125.324    -284.334      43.568
  H      127.180    -281.981      44.154
  H      127.519    -281.503      41.834
  H      128.066    -284.079      41.103
  H      129.889    -282.680      42.108
  H      129.199    -282.925      43.700
  P      125.666    -281.581      40.028
  C      124.578    -279.257      40.089
  O      125.241    -280.259      40.831
  O      124.748    -281.985      38.925
  O      127.126    -281.208      39.479
  H      127.050    -280.764      38.615
  H      123.914    -278.705      40.757
  H      123.986    -279.685      39.274
  H      125.317    -278.567      39.674
  H      132.598    -287.873      43.107
  H      130.963    -287.333      43.405
  H      132.203    -287.068      44.606

 3  4  5  6  7  8  9  10  11  12  13  23  28  29  30  31  32 0
 6-311+G(2d,p)
 ****
 33  34 0
 6-311+G(2d,p)
 ****
 1  2  14  15  16  17  18  19  20  21  22  24  25  26  27 0
 3-21G
 ****
 35  36  37  38  39  40  41  42  43  44  45 0
 3-21G
 ****


