%nproc=1
%NoSave
%Mem=1900MB
#P OB98/GEN NMR

erre ene a

0 1
  C     -101.280    -193.263      -4.297
  O     -101.632    -193.132      -5.657
  H     -102.063    -193.828      -3.783
  H     -101.201    -192.275      -3.833
  H     -100.334    -193.801      -4.188
  P     -100.566    -192.505      -6.677
  C     -100.159    -194.742      -7.898
  O     -100.614    -193.400      -8.005
  C     -101.140    -195.701      -8.578
  O     -102.283    -195.911      -7.689
  C     -101.705    -195.189      -9.920
  O     -101.980    -196.339     -10.731
  C     -102.987    -194.520      -9.456
  O     -103.841    -194.190     -10.519
  C     -103.464    -195.572      -8.446
  N     -104.543    -195.144      -7.558
  C     -105.851    -195.366      -7.977
  O     -106.167    -195.899      -9.039
  N     -106.830    -194.939      -7.115
  C     -106.631    -194.344      -5.906
  O     -107.546    -194.014      -5.162
  C     -105.228    -194.128      -5.521
  C     -104.263    -194.540      -6.349
  O      -99.204    -192.263      -6.120
  O     -101.262    -191.137      -7.150
  H     -100.860    -190.386      -6.673
  H     -104.688    -193.848     -10.153
  H     -107.782    -195.097      -7.397
  H     -105.036    -193.647      -4.572
  H     -103.217    -194.404      -6.091
  H     -103.778    -196.477      -8.974
  H     -102.757    -193.573      -8.954
  H     -101.011    -194.525     -10.448
  H     -100.655    -196.677      -8.704
  H     -100.078    -194.993      -6.833
  H      -99.169    -194.827      -8.360
  P     -102.356    -196.255     -12.287
  C     -100.585    -197.956     -13.110
  O     -101.972    -197.658     -12.971
  O     -101.778    -195.070     -12.990
  O     -103.959    -196.232     -12.336
  H     -104.255    -195.778     -13.146
  H     -100.471    -198.912     -13.577
  H     -100.125    -197.974     -12.144
  H     -100.118    -197.206     -13.714

 6  7  8  9  10  11  12  13  14  15  16  27  31  32  33  34  35 0
 6-311+G(2d,p)
 ****
 36  37 0
 6-311+G(2d,p)
 ****
 1  2  3  4  5  17  18  19  20  21  22  23  24  25 0
 3-21G
 ****
 26  28  29  30  38  39  40  41  42  43  44  45 0
 3-21G
 ****


