%nproc=1
%NoSave
%Mem=1900MB
#P OB98/GEN NMR

erre ene a

0 1
  C     -139.533     -48.878      97.489
  O     -140.111     -47.588      97.522
  H     -140.039     -49.506      98.227
  H     -138.472     -48.818      97.744
  H     -139.656     -49.325      96.499
  P     -139.637     -46.557      96.384
  C     -140.578     -44.330      97.405
  O     -140.695     -45.353      96.432
  C     -141.899     -43.572      97.546
  O     -141.968     -42.563      96.509
  C     -143.136     -44.459      97.418
  O     -144.132     -43.985      98.326
  C     -143.590     -44.232      95.986
  O     -144.978     -44.517      95.816
  C     -143.184     -42.769      95.763
  N     -143.001     -42.454      94.348
  C     -144.027     -41.738      93.724
  O     -145.034     -41.422      94.358
  N     -143.911     -41.435      92.392
  C     -142.891     -41.872      91.719
  N     -142.844     -41.556      90.397
  C     -141.811     -42.676      92.323
  C     -141.923     -42.918      93.627
  O     -140.021     -47.351      95.048
  O     -138.203     -46.157      96.478
  H     -145.193     -44.417      94.862
  H     -140.879     -47.802      95.097
  H     -140.989     -43.029      91.718
  H     -141.170     -43.495      94.154
  H     -143.945     -42.091      96.171
  H     -143.028     -44.888      95.309
  H     -142.937     -45.513      97.612
  H     -141.891     -43.038      98.503
  H     -143.614     -41.019      90.018
  H     -139.785     -43.630      97.127
  H     -142.126     -41.885      89.769
  H     -140.305     -44.797      98.356
  P     -144.355     -44.752      99.714
  C     -146.726     -45.488      99.019
  O     -145.930     -44.852     100.007
  O     -143.529     -44.273     100.860
  O     -143.980     -46.271      99.346
  H     -143.505     -46.656     100.107
  H     -147.749     -45.490      99.332
  H     -146.392     -46.496      98.886
  H     -146.637     -44.958      98.094

 6  7  8  9  10  11  12  13  14  15  16  26  30  31  32  33  35 0
 6-311+G(2d,p)
 ****
 37  38 0
 6-311+G(2d,p)
 ****
 1  2  3  4  5  17  18  19  20  21  22  23  24  25 0
 3-21G
 ****
 27  28  29  34  36  39  40  41  42  43  44  45  46 0
 3-21G
 ****


