%nproc=1
%NoSave
%Mem=1900MB
#P OB98/GEN NMR

erre ene a

0 1
  C     -283.129     129.042    -413.428
  O     -282.623     129.373    -412.147
  P     -282.449     130.911    -411.718
  C     -280.045     131.803    -411.518
  O     -281.112     131.471    -412.403
  C     -279.175     130.578    -411.247
  O     -278.602     130.070    -412.476
  C     -277.986     130.849    -410.340
  O     -278.374     131.025    -408.989
  C     -277.127     129.616    -410.602
  O     -277.600     128.490    -409.843
  C     -277.373     129.386    -412.117
  N     -276.257     129.831    -412.934
  C     -275.433     128.824    -413.440
  O     -275.613     127.645    -413.126
  N     -274.411     129.180    -414.291
  C     -274.161     130.435    -414.504
  N     -273.178     130.726    -415.398
  C     -274.913     131.529    -413.858
  C     -275.950     131.159    -413.109
  O     -282.564     131.175    -410.254
  O     -283.607     131.671    -412.524
  H     -284.107     132.232    -411.905
  H     -278.567     128.450    -409.985
  H     -274.622     132.558    -414.017
  H     -276.572     131.898    -412.616
  H     -277.561     128.322    -412.309
  H     -276.078     129.771    -410.340
  H     -277.453     131.743    -410.686
  H     -279.817     129.793    -410.816
  H     -272.696     129.949    -415.839
  H     -280.473     132.171    -410.579
  H     -273.122     131.622    -415.879
  H     -279.449     132.609    -411.963
  P     -277.415     131.928    -408.071
  C     -275.800     130.665    -406.476
  O     -276.082     131.081    -407.804
  O     -278.157     131.923    -406.648
  O     -277.206     133.315    -408.567
  H     -278.047     132.796    -406.216
  H     -275.086     129.840    -406.514
  H     -276.709     130.326    -405.969
  H     -275.357     131.494    -405.922
  H     -283.173     127.978    -413.530
  H     -282.485     129.447    -414.181
  H     -284.111     129.452    -413.540

 3  4  5  6  7  8  9  10  11  12  13  24  27  28  29  30  32 0
 6-311+G(2d,p)
 ****
 34  35 0
 6-311+G(2d,p)
 ****
 1  2  14  15  16  17  18  19  20  21  22  23  25  26 0
 3-21G
 ****
 31  33  36  37  38  39  40  41  42  43  44  45  46 0
 3-21G
 ****


