%nproc=1
%NoSave
%Mem=1900MB
#P OB98/GEN NMR

erre ene a

0 1
  C      -84.943     -16.999    -175.135
  O      -85.020     -18.394    -175.446
  P      -84.902     -19.430    -174.223
  C      -87.505     -19.543    -173.975
  O      -86.291     -20.242    -174.196
  C      -88.691     -20.294    -174.594
  O      -88.588     -20.258    -176.054
  C      -88.795     -21.767    -174.178
  O      -90.199     -22.065    -174.052
  C      -88.200     -22.508    -175.360
  O      -88.638     -23.859    -175.417
  C      -88.686     -21.619    -176.516
  N      -87.917     -21.830    -177.745
  C      -88.252     -22.943    -178.517
  O      -89.091     -23.769    -178.167
  N      -87.555     -23.086    -179.684
  C      -86.517     -22.301    -180.108
  O      -85.926     -22.478    -181.163
  C      -86.130     -21.209    -179.189
  C      -86.840     -21.028    -178.070
  O      -84.986     -18.448    -172.964
  O      -83.666     -20.272    -174.288
  H      -85.605     -17.705    -173.097
  H      -88.044     -24.361    -176.017
  H      -87.800     -23.868    -180.274
  H      -85.275     -20.600    -179.463
  H      -86.568     -20.249    -177.367
  H      -89.740     -21.821    -176.733
  H      -87.105     -22.500    -175.297
  H      -88.292     -21.981    -173.223
  H      -89.612     -19.763    -174.322
  H      -87.446     -18.546    -174.425
  H      -87.650     -19.399    -172.893
  P      -90.931     -21.709    -172.661
  C      -91.948     -19.545    -173.738
  O      -92.158     -20.737    -173.010
  O      -89.846     -20.711    -172.022
  O      -91.224     -22.885    -171.781
  H      -89.536     -20.034    -172.649
  H      -92.917     -19.164    -174.073
  H      -91.322     -19.725    -174.619
  H      -91.470     -18.797    -173.096
  H      -85.035     -16.427    -176.035
  H      -84.001     -16.788    -174.673
  H      -85.735     -16.739    -174.464

 3  4  5  6  7  8  9  10  11  12  13  24  28  29  30  31  32 0
 6-311+G(2d,p)
 ****
 33  34 0
 6-311+G(2d,p)
 ****
 1  2  14  15  16  17  18  19  20  21  22  23  25  26  27 0
 3-21G
 ****
 35  36  37  38  39  40  41  42  43  44  45 0
 3-21G
 ****


