%nproc=1
%NoSave
%Mem=1900MB
#P OB98/GEN NMR

erre ene a

0 1
  C      241.815     846.703     889.932
  O      242.325     845.622     889.182
  P      241.508     844.238     889.055
  C      243.375     843.648     887.380
  O      242.563     843.182     888.472
  C      243.861     842.454     886.558
  O      242.732     841.859     885.895
  C      244.877     842.771     885.454
  O      246.237     842.849     885.896
  C      244.711     841.542     884.572
  O      245.438     840.431     885.136
  C      243.210     841.295     884.633
  N      242.110     840.964     879.660
  C      242.834     840.172     880.466
  N      243.080     840.335     881.775
  C      242.479     841.448     882.254
  C      241.705     842.348     881.530
  C      241.525     842.072     880.167
  N      240.777     842.892     879.324
  N      241.261     843.361     882.355
  C      241.739     843.075     883.545
  N      242.488     841.919     883.530
  O      240.213     844.347     888.333
  O      241.344     843.754     890.581
  H      245.145     840.338     886.053
  H      240.626     843.078     890.634
  H      243.266     839.278     880.013
  H      241.595     843.668     884.447
  H      242.955     840.226     884.645
  H      245.110     841.714     883.555
  H      244.573     843.672     884.909
  H      244.280     841.708     887.274
  H      244.231     844.188     887.801
  H      240.596     842.544     878.393
  H      240.200     843.611     879.764
  H      242.799     844.344     886.767
  P      246.943     844.295     885.779
  C      249.085     843.147     886.784
  O      248.526     844.001     885.807
  O      246.473     845.320     886.765
  O      246.667     844.680     884.253
  H      247.111     844.134     883.586
  H      250.145     842.937     886.523
  H      248.555     842.209     886.825
  H      249.050     843.643     887.775
  H      242.503     847.522     889.891
  H      241.682     846.400     890.949
  H      240.874     847.007     889.524

 3  4  5  6  7  8  9  10  11  12  22  25  29  30  31  32 0
 6-311+G(2d,p)
 ****
 33  36  37 0
 6-311+G(2d,p)
 ****
 1  2  13  14  15  16  17  18  19  20  21  23  24  26 0
 3-21G
 ****
 27  28  34  35  38  39  40  41  42  43  44  45  46  47  48 0
 3-21G
 ****


