%nproc=1
%NoSave
%Mem=1900MB
#P OB98/GEN NMR

erre ene a

0 1
  C     -769.673     -41.893     544.764
  O     -769.941     -41.083     543.602
  P     -771.445     -40.565     543.397
  C     -770.867     -40.615     540.845
  O     -771.485     -39.938     541.924
  C     -770.828     -39.701     539.611
  O     -772.166     -39.459     539.112
  C     -770.238     -38.336     539.869
  O     -768.823     -38.388     539.998
  C     -770.737     -37.569     538.651
  O     -769.902     -37.846     537.509
  C     -772.141     -38.182     538.438
  N     -773.213     -37.318     538.900
  C     -773.355     -36.111     538.222
  O     -772.619     -35.769     537.294
  N     -774.382     -35.306     538.647
  C     -775.230     -35.546     539.686
  O     -776.121     -34.799     540.018
  C     -774.988     -36.816     540.403
  C     -774.015     -37.631     539.982
  O     -771.468     -39.306     544.379
  O     -772.468     -41.606     543.690
  H     -770.623     -38.826     544.408
  H     -769.912     -38.821     537.383
  H     -774.509     -34.428     538.148
  H     -775.624     -37.039     541.247
  H     -773.826     -38.571     540.506
  H     -772.304     -38.398     537.379
  H     -770.731     -36.485     538.804
  H     -770.676     -37.904     540.780
  H     -770.253     -40.230     538.826
  H     -771.424     -41.526     540.603
  H     -769.862     -40.916     541.150
  P     -768.192     -37.836     541.367
  C     -766.224     -36.351     540.481
  O     -766.649     -37.569     541.081
  O     -768.188     -39.162     542.269
  O     -768.948     -36.688     541.960
  H     -767.881     -39.949     541.787
  H     -765.164     -36.208     540.688
  H     -766.782     -35.503     540.880
  H     -766.367     -36.408     539.402
  H     -768.639     -42.167     544.777
  H     -770.276     -42.776     544.730
  H     -769.905     -41.337     545.648

 3  4  5  6  7  8  9  10  11  12  13  24  28  29  30  31  32 0
 6-311+G(2d,p)
 ****
 33  34 0
 6-311+G(2d,p)
 ****
 1  2  14  15  16  17  18  19  20  21  22  23  25  26  27 0
 3-21G
 ****
 35  36  37  38  39  40  41  42  43  44  45 0
 3-21G
 ****


