%nproc=1
%NoSave
%Mem=1900MB
#P OB98/GEN NMR

erre ene a

0 1
  C      192.628    -290.547     296.287
  O      192.631    -291.871     296.852
  P      194.043    -292.607     297.117
  C      193.148    -294.076     299.082
  O      193.804    -294.035     297.826
  C      192.606    -295.489     299.387
  O      191.484    -295.787     298.511
  C      193.632    -296.619     299.191
  O      193.332    -297.637     300.151
  C      193.326    -297.115     297.787
  O      193.817    -298.416     297.526
  C      191.791    -297.000     297.799
  N      191.173    -297.007     296.468
  C      190.514    -298.166     296.062
  O      190.450    -299.206     296.719
  N      189.916    -298.105     294.826
  C      189.961    -297.041     293.960
  O      189.439    -297.070     292.854
  C      190.702    -295.863     294.427
  C      191.264    -295.899     295.643
  O      194.650    -291.730     298.316
  O      194.984    -292.630     295.960
  H      193.471    -298.998     298.231
  H      195.589    -291.527     298.129
  H      189.420    -298.927     294.516
  H      190.757    -295.007     293.774
  H      191.804    -295.039     296.015
  H      191.369    -297.823     298.389
  H      193.775    -296.439     297.054
  H      194.669    -296.280     299.311
  H      192.220    -295.489     300.413
  H      192.321    -293.366     299.088
  H      193.859    -293.777     299.866
  P      193.789    -297.421     301.679
  C      192.216    -299.265     302.675
  O      193.532    -298.805     302.451
  O      192.602    -296.480     302.205
  O      195.146    -296.812     301.836
  H      191.716    -296.799     301.926
  H      191.571    -299.099     301.804
  H      191.791    -298.748     303.540
  H      192.256    -300.337     302.889
  H      191.619    -290.208     296.178
  H      193.103    -290.567     295.329
  H      193.159    -289.882     296.935

 3  4  5  6  7  8  9  10  11  12  13  23  28  29  30  31  32 0
 6-311+G(2d,p)
 ****
 33  34 0
 6-311+G(2d,p)
 ****
 1  2  14  15  16  17  18  19  20  21  22  24  25  26 0
 3-21G
 ****
 27  35  36  37  38  39  40  41  42  43  44  45 0
 3-21G
 ****


