%nproc=1
%NoSave
%Mem=1900MB
#P OB98/GEN NMR

erre ene a

0 1
  C       34.845     -86.583     -30.727
  O       36.017     -87.123     -30.106
  P       36.232     -86.725     -28.563
  C       37.132     -89.064     -27.895
  O       37.391     -87.667     -27.966
  C       38.439     -89.857     -27.928
  O       38.981     -89.908     -29.279
  C       39.541     -89.287     -27.005
  O       40.278     -90.420     -26.479
  C       40.390     -88.498     -27.983
  O       41.674     -88.158     -27.490
  C       40.354     -89.448     -29.185
  N       44.016     -89.359     -32.755
  C       43.888     -90.072     -31.612
  N       42.874     -90.037     -30.714
  C       41.933     -89.140     -31.081
  C       41.940     -88.338     -32.219
  C       43.046     -88.463     -33.082
  N       43.202     -87.724     -34.220
  N       40.805     -87.529     -32.237
  C       40.178     -87.807     -31.105
  N       40.781     -88.834     -30.417
  O       34.900     -87.247     -27.838
  O       36.453     -85.250     -28.349
  H       42.133     -87.593     -28.154
  H       34.266     -86.512     -27.711
  H       44.688     -90.766     -31.401
  H       39.297     -87.297     -30.741
  H       40.994     -90.323     -29.030
  H       39.879     -87.553     -28.230
  H       39.156     -88.693     -26.167
  H       38.212     -90.896     -27.638
  H       36.495     -89.369     -28.724
  H       44.032     -87.876     -34.775
  H       42.507     -87.040     -34.499
  H       36.552     -89.270     -26.973
  P       40.249     -90.685     -24.903
  C       41.085     -93.070     -25.388
  O       41.331     -91.861     -24.685
  O       38.867     -91.504     -24.775
  O       40.344     -89.490     -24.023
  H       38.822     -92.236     -25.421
  H       41.934     -93.735     -25.223
  H       41.004     -92.867     -26.463
  H       40.162     -93.540     -25.023
  H       34.799     -86.908     -31.746
  H       34.885     -85.514     -30.695
  H       33.975     -86.924     -30.205

 3  4  5  6  7  8  9  10  11  12  22  25  29  30  31  32 0
 6-311+G(2d,p)
 ****
 33  36  37 0
 6-311+G(2d,p)
 ****
 1  2  13  14  15  16  17  18  19  20  21  23  24  26 0
 3-21G
 ****
 27  28  34  35  38  39  40  41  42  43  44  45  46  47  48 0
 3-21G
 ****


