%nproc=1
%NoSave
%Mem=1900MB
#P OB98/GEN NMR

erre ene a

0 1
  C      236.806     312.434    -236.464
  O      235.525     312.813    -236.013
  H      237.001     312.929    -237.418
  H      236.834     311.352    -236.617
  H      237.584     312.724    -235.753
  P      235.164     312.618    -234.468
  C      234.247     310.715    -232.985
  O      234.873     311.059    -234.215
  C      233.633     309.316    -233.036
  O      234.590     308.384    -233.584
  C      233.248     308.791    -231.651
  O      231.954     309.170    -231.216
  C      233.342     307.281    -231.847
  O      232.098     306.740    -232.327
  C      234.437     307.128    -232.908
  N      238.852     304.642    -233.591
  C      237.740     304.675    -234.413
  N      237.808     303.923    -235.531
  N      236.667     305.371    -234.141
  C      236.709     305.990    -232.941
  C      237.745     306.013    -232.033
  C      238.958     305.301    -232.373
  O      239.975     305.255    -231.691
  N      237.410     306.716    -230.902
  C      236.146     307.042    -231.090
  N      235.703     306.692    -232.344
  O      233.701     313.265    -234.342
  O      236.109     313.260    -233.498
  H      231.764     307.329    -233.030
  H      233.587     313.646    -233.452
  H      239.658     304.112    -233.866
  H      235.523     307.567    -230.375
  H      234.156     306.389    -233.669
  H      233.560     306.777    -230.902
  H      238.572     303.305    -235.746
  H      233.995     309.083    -230.905
  H      236.947     303.771    -236.062
  H      232.768     309.324    -233.714
  H      233.467     311.459    -232.814
  H      234.959     310.790    -232.159
  P      231.564     309.130    -229.665
  C      231.649     307.310    -227.777
  O      231.688     307.627    -229.150
  O      229.983     309.385    -229.685
  O      232.278     310.114    -228.799
  H      229.783     310.319    -229.488
  H      231.749     306.252    -227.652
  H      230.716     307.632    -227.363
  H      232.453     307.806    -227.274

 6  7  8  9  10  11  12  13  14  15  26  29  33  34 0
 6-311+G(2d,p)
 ****
 36  38  39  40  41 0
 6-311+G(2d,p)
 ****
 1  2  3  4  5  16  17  18  19  20  21  22  23  24  25 0
 3-21G
 ****
 27  28  30  31  32  35  37  42  43  44  45  46  47 0
 3-21G
 ****
 48  49 0
 3-21G
 ****


