%nproc=1
%NoSave
%Mem=1900MB
#P OB98/GEN NMR

erre ene a

0 1
  C      594.501     310.059      48.651
  O      595.162     309.990      49.896
  H      594.800     310.978      48.147
  H      593.419     310.075      48.809
  H      594.766     309.210      48.017
  P      595.192     308.595      50.681
  C      597.595     307.936      49.994
  O      596.215     307.635      49.895
  C      598.308     307.717      48.659
  O      598.300     306.304      48.331
  C      597.562     308.437      47.532
  O      598.435     308.823      46.471
  C      596.607     307.364      47.021
  O      596.159     307.609      45.691
  C      597.458     306.110      47.169
  N      594.924     302.347      44.866
  C      595.476     303.496      44.326
  N      595.310     303.664      42.984
  N      596.120     304.394      45.021
  C      596.146     304.123      46.345
  C      595.614     303.033      47.015
  C      594.938     302.022      46.217
  O      594.412     301.004      46.652
  N      595.817     303.120      48.363
  C      596.461     304.257      48.527
  N      596.698     304.897      47.328
  O      593.773     307.938      50.347
  O      595.418     308.686      52.160
  H      595.393     307.020      45.521
  H      593.516     307.308      51.041
  H      594.454     301.676      44.280
  H      596.791     304.661      49.483
  H      598.115     305.982      46.304
  H      595.722     307.363      47.666
  H      594.680     303.096      42.451
  H      597.024     309.325      47.889
  H      595.440     304.621      42.635
  H      599.357     308.021      48.735
  H      598.016     307.270      50.752
  H      597.733     308.964      50.342
  P      599.086     310.289      46.541
  C      601.563     309.622      45.971
  O      600.634     310.116      46.917
  O      598.430     310.933      47.862
  O      598.839     311.116      45.327
  H      597.755     311.592      47.598
  H      602.536     309.582      46.414
  H      601.585     310.271      45.120
  H      601.271     308.640      45.663

 6  7  8  9  10  11  12  13  14  15  26  29  33  34 0
 6-311+G(2d,p)
 ****
 36  38  39  40  41 0
 6-311+G(2d,p)
 ****
 1  2  3  4  5  16  17  18  19  20  21  22  23  24  25 0
 3-21G
 ****
 27  28  30  31  32  35  37  42  43  44  45  46  47 0
 3-21G
 ****
 48  49 0
 3-21G
 ****


