%nproc=1
%NoSave
%Mem=1900MB
#P OB98/GEN NMR

erre ene a

0 1
  C     -247.846      91.775    -187.433
  O     -247.475      90.447    -187.828
  P     -247.086      89.293    -186.782
  C     -244.809      88.774    -187.876
  O     -246.074      88.261    -187.481
  C     -243.959      87.709    -188.580
  O     -244.062      86.436    -187.870
  C     -244.351      87.448    -190.047
  O     -243.129      87.239    -190.764
  C     -245.159      86.164    -189.933
  O     -245.299      85.469    -191.158
  C     -244.335      85.431    -188.870
  N     -244.981      84.269    -188.269
  C     -244.881      83.045    -188.947
  O     -244.320      82.961    -190.037
  N     -245.445      81.930    -188.372
  C     -246.058      82.024    -187.237
  N     -246.585      80.880    -186.719
  C     -246.205      83.290    -186.501
  C     -245.646      84.358    -187.068
  O     -248.271      88.629    -186.155
  O     -246.191      90.012    -185.666
  H     -246.377      89.610    -184.798
  H     -245.508      84.540    -190.953
  H     -246.719      83.324    -185.551
  H     -245.683      85.326    -186.574
  H     -243.369      85.134    -189.299
  H     -246.163      86.413    -189.575
  H     -244.894      88.277    -190.509
  H     -242.908      88.018    -188.517
  H     -246.455      80.026    -187.250
  H     -244.278      89.117    -186.984
  H     -247.077      80.835    -185.841
  H     -244.963      89.635    -188.535
  P     -242.306      88.500    -191.313
  C     -241.698      87.486    -193.637
  O     -241.243      87.957    -192.383
  O     -241.361      88.849    -190.064
  O     -243.110      89.698    -191.701
  H     -241.118      89.791    -190.100
  H     -241.048      87.886    -194.420
  H     -242.725      87.793    -193.847
  H     -241.640      86.394    -193.650
  H     -248.059      92.360    -188.303
  H     -247.040      92.224    -186.891
  H     -248.715      91.732    -186.810

 3  4  5  6  7  8  9  10  11  12  13  24  27  28  29  30  32 0
 6-311+G(2d,p)
 ****
 34  35 0
 6-311+G(2d,p)
 ****
 1  2  14  15  16  17  18  19  20  21  22  23  25  26 0
 3-21G
 ****
 31  33  36  37  38  39  40  41  42  43  44  45  46 0
 3-21G
 ****


