%nproc=1
%NoSave
%Mem=1900MB
#P OB98/GEN NMR

erre ene a

0 1
  C      -17.302     235.592      88.511
  O      -15.908     235.665      88.736
  H      -17.766     235.081      89.358
  H      -17.512     235.026      87.598
  H      -17.721     236.598      88.432
  P      -15.028     236.335      87.576
  C      -15.210     234.324      85.973
  O      -15.583     235.675      86.220
  C      -15.100     234.069      84.469
  O      -14.721     232.682      84.264
  C      -16.411     234.305      83.710
  O      -16.113     234.847      82.423
  C      -16.971     232.903      83.543
  O      -17.882     232.810      82.454
  C      -15.689     232.089      83.383
  N      -15.677     227.369      81.475
  C      -15.266     228.550      80.968
  N      -15.283     229.763      81.557
  C      -15.737     229.669      82.822
  C      -16.191     228.538      83.476
  C      -16.159     227.340      82.740
  N      -16.608     226.137      83.234
  N      -16.619     228.857      84.749
  C      -16.417     230.157      84.866
  N      -15.905     230.693      83.716
  O      -13.550     236.258      87.760
  O      -15.635     237.814      87.511
  H      -17.464     233.215      81.663
  H      -16.611     237.801      87.510
  H      -14.880     228.520      79.952
  H      -16.640     230.752      85.745
  H      -15.295     232.122      82.357
  H      -17.506     232.606      84.453
  H      -17.101     234.962      84.239
  H      -14.289     234.684      84.064
  H      -15.952     233.644      86.406
  H      -16.546     225.326      82.639
  H      -16.965     226.090      84.177
  H      -14.246     234.146      86.462
  P      -16.585     236.340      82.077
  C      -19.065     235.820      81.608
  O      -18.140     236.488      82.454
  O      -16.215     236.837      80.720
  O      -15.871     237.209      83.221
  H      -15.519     238.030      82.824
  H      -20.060     235.993      81.961
  H      -18.862     234.770      81.616
  H      -18.970     236.194      80.610

 6  7  8  9  10  11  12  13  14  15  25  28  32  33  34  35 0
 6-311+G(2d,p)
 ****
 36  39  40 0
 6-311+G(2d,p)
 ****
 1  2  3  4  5  16  17  18  19  20  21  22  23  24 0
 3-21G
 ****
 26  27  29  30  31  37  38  41  42  43  44  45  46  47 0
 3-21G
 ****
 48 0
 3-21G
 ****


