%nproc=1
%NoSave
%Mem=1900MB
#P OB98/GEN NMR

erre ene a

0 1
  C      232.332    -155.966     125.236
  O      231.339    -155.838     124.242
  H      231.843    -155.994     126.214
  H      232.998    -155.099     125.202
  H      232.913    -156.882     125.107
  P      231.707    -156.222     122.735
  C      230.283    -158.373     122.650
  O      231.590    -157.818     122.581
  C      229.742    -158.720     121.262
  O      229.775    -157.548     120.420
  C      230.579    -159.792     120.558
  O      230.203    -161.124     120.860
  C      230.326    -159.472     119.087
  O      229.157    -160.151     118.597
  C      230.105    -157.956     119.087
  N      233.000    -156.611     115.092
  C      231.995    -157.559     115.154
  N      231.764    -158.250     114.018
  N      231.302    -157.801     116.236
  C      231.715    -157.100     117.316
  C      232.712    -156.154     117.381
  C      233.425    -155.836     116.163
  O      234.311    -154.996     116.050
  N      232.876    -155.681     118.661
  C      232.040    -156.407     119.378
  N      231.259    -157.222     118.596
  O      233.291    -155.985     122.665
  O      231.008    -155.423     121.676
  H      229.281    -161.108     118.743
  H      233.543    -155.708     121.764
  H      233.480    -156.446     114.225
  H      231.929    -156.346     120.456
  H      229.257    -157.675     118.449
  H      231.164    -159.801     118.466
  H      232.323    -158.163     113.185
  H      231.644    -159.644     120.760
  H      231.170    -159.080     114.071
  H      228.693    -159.024     121.348
  H      229.649    -157.621     123.119
  H      230.279    -159.257     123.293
  P      231.141    -162.354     120.455
  C      232.952    -161.567     122.187
  O      232.637    -162.010     120.883
  O      231.182    -162.265     118.857
  O      230.683    -163.694     120.930
  H      230.553    -162.894     118.461
  H      234.005    -161.394     122.260
  H      232.663    -162.313     122.897
  H      232.426    -160.658     122.391

 6  7  8  9  10  11  12  13  14  15  26  29  33  34 0
 6-311+G(2d,p)
 ****
 36  38  39  40  41 0
 6-311+G(2d,p)
 ****
 1  2  3  4  5  16  17  18  19  20  21  22  23  24  25 0
 3-21G
 ****
 27  28  30  31  32  35  37  42  43  44  45  46  47 0
 3-21G
 ****
 48  49 0
 3-21G
 ****


