%nproc=1
%NoSave
%Mem=1900MB
#P OB98/GEN NMR

erre ene a

0 1
  C      209.061     181.001    -314.224
  O      207.685     180.809    -314.569
  P      207.234     179.332    -315.004
  C      207.524     178.254    -312.653
  O      206.641     178.579    -313.721
  C      207.212     176.855    -312.119
  O      208.304     176.338    -311.334
  C      206.006     176.824    -311.192
  O      204.805     176.870    -311.938
  C      206.215     175.513    -310.441
  O      205.593     174.409    -311.117
  C      207.757     175.355    -310.437
  N      208.325     175.474    -309.107
  C      208.576     174.272    -308.438
  O      208.293     173.197    -308.966
  N      209.115     174.322    -307.178
  C      209.359     175.472    -306.624
  N      209.888     175.457    -305.372
  C      209.083     176.765    -307.284
  C      208.572     176.693    -308.512
  O      208.626     178.585    -315.266
  O      206.358     179.299    -316.216
  H      205.806     174.526    -312.066
  H      208.527     177.928    -315.977
  H      209.296     177.696    -306.783
  H      208.338     177.590    -309.074
  H      208.037     174.373    -310.838
  H      205.782     175.555    -309.438
  H      206.054     177.665    -310.491
  H      207.045     176.183    -312.973
  H      210.059     174.552    -304.946
  H      207.434     178.989    -311.851
  H      210.110     176.290    -304.845
  H      208.558     178.312    -313.017
  P      203.811     178.095    -311.673
  C      204.787     179.972    -313.128
  O      203.822     178.941    -313.035
  O      204.679     179.027    -310.699
  O      202.470     177.780    -311.096
  H      204.140     179.774    -310.386
  H      204.825     180.321    -314.162
  H      205.776     179.599    -312.847
  H      204.503     180.806    -312.484
  H      209.222     182.024    -313.956
  H      209.677     180.751    -315.062
  H      209.312     180.371    -313.396

 3  4  5  6  7  8  9  10  11  12  13  21  23  27  28  29  30  32 0
 6-311+G(2d,p)
 ****
 34  35 0
 6-311+G(2d,p)
 ****
 1  2  14  15  16  17  18  19  20  22  24  25  26 0
 3-21G
 ****
 31  33  36  37  38  39  40  41  42  43  44  45  46 0
 3-21G
 ****


