%nproc=1
%NoSave
%Mem=1900MB
#P OB98/GEN NMR

erre ene a

0 1
  C      341.254      14.543     -92.603
  O      340.508      15.733     -92.447
  H      340.938      13.799     -91.866
  H      341.073      14.141     -93.605
  H      342.323      14.749     -92.491
  P      340.605      16.465     -91.022
  C      342.476      17.855     -89.865
  O      342.133      16.943     -90.899
  C      343.763      17.392     -89.189
  O      343.572      16.080     -88.610
  C      344.944      17.256     -90.143
  O      345.588      18.495     -90.392
  C      345.839      16.318     -89.353
  O      346.500      17.046     -88.302
  C      344.814      15.339     -88.759
  N      346.700      10.852     -90.347
  C      347.159      11.759     -89.458
  N      346.587      12.918     -89.075
  C      345.417      13.101     -89.703
  C      344.816      12.261     -90.629
  C      345.515      11.087     -90.954
  N      345.065      10.174     -91.883
  N      343.623      12.798     -91.071
  C      343.500      13.931     -90.410
  N      344.572      14.175     -89.594
  O      340.518      15.264     -89.969
  O      339.600      17.538     -90.770
  H      345.802      17.416     -87.730
  H      340.343      15.608     -89.073
  H      348.114      11.524     -88.995
  H      342.661      14.612     -90.493
  H      345.106      14.973     -87.769
  H      346.618      15.861     -89.967
  H      344.650      16.766     -91.080
  H      343.992      18.087     -88.373
  H      341.665      17.886     -89.132
  H      345.704       9.443     -92.157
  H      344.262      10.412     -92.447
  H      342.614      18.854     -90.294
  P      346.313      18.681     -91.814
  C      345.362      18.831     -94.226
  O      345.238      18.260     -92.929
  O      347.363      17.472     -91.839
  O      346.970      20.005     -92.010
  H      348.164      17.719     -92.338
  H      344.581      18.459     -94.856
  H      346.312      18.568     -94.642
  H      345.287      19.896     -94.156

 6  7  8  9  10  11  12  13  14  15  25  28  32  33  34  35 0
 6-311+G(2d,p)
 ****
 36  39  40 0
 6-311+G(2d,p)
 ****
 1  2  3  4  5  16  17  18  19  20  21  22  23  24 0
 3-21G
 ****
 26  27  29  30  31  37  38  41  42  43  44  45  46  47 0
 3-21G
 ****
 48 0
 3-21G
 ****


