%nproc=1
%NoSave
%Mem=1900MB
#P OB98/GEN NMR

erre ene a

0 1
  C       38.585     537.998    -755.804
  O       38.483     538.874    -756.907
  H       37.682     538.092    -755.195
  H       39.447     538.279    -755.184
  H       38.688     536.961    -756.136
  P       39.674     538.837    -757.980
  C       40.982     540.873    -757.020
  O       40.964     539.467    -757.244
  C       42.148     541.257    -756.113
  O       43.350     540.560    -756.572
  C       42.467     542.768    -756.098
  O       42.905     543.118    -754.777
  C       43.663     542.868    -757.043
  O       44.427     544.054    -756.822
  C       44.385     541.569    -756.697
  N       49.057     542.463    -758.336
  C       48.384     542.965    -757.231
  N       49.066     543.831    -756.447
  N       47.158     542.633    -756.930
  C       46.618     541.727    -757.791
  C       47.178     541.173    -758.909
  C       48.532     541.565    -759.256
  O       49.175     541.176    -760.231
  N       46.295     540.309    -759.530
  C       45.210     540.363    -758.791
  N       45.357     541.198    -757.716
  O       39.247     539.965    -759.026
  O       39.897     537.515    -758.641
  H       43.821     544.819    -756.909
  H       38.747     539.574    -759.769
  H       49.999     542.767    -758.531
  H       44.299     539.805    -758.976
  H       44.928     541.624    -755.750
  H       43.320     542.870    -758.086
  H       50.022     544.097    -756.585
  H       41.626     543.407    -756.398
  H       48.591     544.166    -755.608
  H       41.945     540.891    -755.093
  H       40.038     541.164    -756.539
  H       41.073     541.384    -757.992
  P       41.784     543.357    -753.651
  C       41.141     545.853    -754.052
  O       40.778     544.495    -754.193
  O       42.605     544.122    -752.505
  O       41.154     542.104    -753.147
  H       42.188     543.937    -751.639
  H       40.370     546.473    -754.460
  H       42.057     546.033    -754.575
  H       41.271     546.082    -753.015

 6  7  8  9  10  11  12  13  14  15  26  29  33  34 0
 6-311+G(2d,p)
 ****
 36  38  39  40  41 0
 6-311+G(2d,p)
 ****
 1  2  3  4  5  16  17  18  19  20  21  22  23  24  25 0
 3-21G
 ****
 27  28  30  31  32  35  37  42  43  44  45  46  47 0
 3-21G
 ****
 48  49 0
 3-21G
 ****


