%nproc=1
%NoSave
%Mem=1900MB
#P OB98/GEN NMR

erre ene a

0 1
  C      256.456    -893.560     131.652
  O      255.481    -893.690     130.630
  P      255.935    -893.440     129.108
  C      253.687    -894.620     128.390
  O      254.599    -893.540     128.219
  C      252.993    -894.920     127.063
  O      253.954    -894.990     125.992
  C      252.235    -896.250     127.028
  O      250.996    -896.150     127.727
  C      252.106    -896.460     125.537
  O      251.009    -895.710     124.994
  C      253.446    -895.930     125.008
  N      254.427    -896.990     124.728
  C      254.240    -897.710     123.551
  O      253.302    -897.490     122.772
  N      255.136    -898.710     123.306
  C      256.161    -899.080     124.129
  O      256.932    -900.000     123.876
  C      256.299    -898.310     125.370
  C      255.445    -897.310     125.597
  O      256.730    -894.810     128.812
  O      256.748    -892.210     128.932
  H      256.390    -895.550     129.354
  H      250.215    -895.940     125.506
  H      255.026    -899.230     122.447
  H      257.111    -898.570     126.046
  H      255.524    -896.720     126.518
  H      253.292    -895.330     124.092
  H      251.912    -897.540     125.275
  H      252.840    -897.040     127.473
  H      252.300    -894.080     126.844
  H      252.940    -894.350     129.142
  H      254.244    -895.500     128.737
  P      250.734    -897.280     128.853
  C      248.876    -895.790     129.954
  O      249.233    -897.040     129.388
  O      251.683    -896.790     130.048
  O      251.028    -898.680     128.396
  H      251.649    -895.800     130.162
  H      247.791    -895.710     129.928
  H      249.323    -894.970     129.392
  H      249.227    -895.740     131.010
  H      256.005    -893.755     132.602
  H      256.852    -892.566     131.643
  H      257.247    -894.261     131.482

 3  4  5  6  7  8  9  10  11  12  13  24  28  29  30  31  32 0
 6-311+G(2d,p)
 ****
 33  34 0
 6-311+G(2d,p)
 ****
 1  2  14  15  16  17  18  19  20  21  22  23  25  26  27 0
 3-21G
 ****
 35  36  37  38  39  40  41  42  43  44  45 0
 3-21G
 ****


