%nproc=1
%NoSave
%Mem=1900MB
#P OB98/GEN NMR

erre ene a

0 1
  C      821.354       4.420    -220.868
  O      821.563       5.271    -219.760
  P      822.002       6.803    -219.942
  C      824.311       7.952    -219.999
  O      823.574       6.760    -220.282
  C      825.798       7.647    -219.804
  O      825.986       6.904    -218.561
  C      826.439       6.816    -220.939
  O      827.787       7.282    -221.045
  C      826.402       5.418    -220.365
  O      827.315       4.533    -221.023
  C      826.687       5.680    -218.888
  N      826.274       4.570    -218.037
  C      827.278       3.704    -217.598
  O      828.440       3.857    -217.993
  N      826.944       2.667    -216.773
  C      825.696       2.448    -216.493
  N      825.422       1.408    -215.656
  C      824.594       3.252    -217.035
  C      824.944       4.305    -217.782
  O      821.623       7.711    -218.823
  O      821.362       7.215    -221.353
  H      828.225       4.781    -220.753
  H      820.394       7.384    -221.252
  H      823.563       3.002    -216.821
  H      824.208       4.959    -218.223
  H      827.765       5.867    -218.726
  H      825.394       4.994    -220.492
  H      825.919       6.910    -221.889
  H      826.329       8.605    -219.697
  H      826.209       0.885    -215.301
  H      823.918       8.379    -219.077
  H      824.494       1.196    -215.310
  H      824.162       8.678    -220.805
  P      828.531       7.357    -222.472
  C      830.414       6.096    -223.655
  O      829.545       6.119    -222.533
  O      829.127       8.689    -222.796
  O      827.388       6.943    -223.534
  H      827.675       7.213    -224.425
  H      831.236       5.386    -223.449
  H      830.836       7.081    -223.847
  H      829.869       5.760    -224.543
  H      821.069       3.448    -220.523
  H      822.258       4.346    -221.436
  H      820.577       4.821    -221.485

 3  4  5  6  7  8  9  10  11  12  13  23  27  28  29  30  32 0
 6-311+G(2d,p)
 ****
 34  35 0
 6-311+G(2d,p)
 ****
 1  2  14  15  16  17  18  19  20  21  22  24  25  26 0
 3-21G
 ****
 31  33  36  37  38  39  40  41  42  43  44  45  46 0
 3-21G
 ****


