%nproc=1
%NoSave
%Mem=1900MB
#P OB98/GEN NMR

erre ene a

0 1
  C      351.095    -494.303     135.837
  O      352.300    -495.006     135.591
  P      352.374    -496.074     134.397
  C      354.690    -495.384     133.515
  O      353.916    -496.411     134.137
  C      356.178    -495.722     133.585
  O      356.682    -495.489     134.924
  C      356.506    -497.176     133.271
  O      356.439    -497.414     131.874
  C      357.890    -497.310     133.883
  O      358.890    -496.787     132.989
  C      357.775    -496.411     135.132
  N      360.001    -499.418     138.603
  C      360.433    -498.939     137.411
  N      359.761    -498.176     136.521
  C      358.519    -497.933     136.960
  C      357.922    -498.377     138.131
  C      358.739    -499.148     138.990
  N      358.330    -499.581     140.237
  N      356.616    -497.942     138.209
  C      356.421    -497.254     137.098
  N      357.553    -497.171     136.344
  O      351.586    -495.716     133.175
  O      351.819    -497.419     135.063
  H      359.738    -496.763     133.483
  H      351.018    -497.713     134.584
  H      361.458    -499.205     137.143
  H      355.484    -496.793     136.811
  H      358.671    -495.807     135.279
  H      358.160    -498.349     134.102
  H      355.811    -497.840     133.808
  H      356.713    -495.043     132.903
  H      354.492    -494.443     134.032
  H      359.036    -499.989     140.824
  H      357.518    -499.135     140.661
  H      354.370    -495.279     132.469
  P      355.372    -498.454     131.298
  C      355.643    -497.485     128.928
  O      355.702    -498.653     129.741
  O      353.935    -498.151     131.605
  O      355.811    -499.855     131.934
  H      355.024    -500.414     132.080
  H      354.599    -497.248     128.706
  H      356.178    -497.679     127.994
  H      356.112    -496.634     129.435
  H      351.232    -493.639     136.665
  H      350.315    -495.000     136.064
  H      350.827    -493.739     134.968

 3  4  5  6  7  8  9  10  11  12  22  25  29  30  31  32 0
 6-311+G(2d,p)
 ****
 33  36  37 0
 6-311+G(2d,p)
 ****
 1  2  13  14  15  16  17  18  19  20  21  23  24  26 0
 3-21G
 ****
 27  28  34  35  38  39  40  41  42  43  44  45  46  47  48 0
 3-21G
 ****


