%nproc=1
%NoSave
%Mem=1900MB
#P OB98/GEN NMR

erre ene a

0 1
  C      620.350     160.458     113.871
  O      619.276     159.605     114.209
  H      621.245     160.129     114.406
  H      620.112     161.479     114.181
  H      620.551     160.430     112.797
  P      617.983     159.643     113.264
  C      618.447     157.317     112.202
  O      618.315     158.717     111.993
  C      618.457     156.574     110.866
  O      617.194     156.831     110.182
  C      619.598     157.002     109.916
  O      620.059     155.847     109.206
  C      618.894     157.919     108.940
  O      619.581     158.017     107.696
  C      617.529     157.240     108.840
  N      615.783     159.032     104.487
  C      616.666     158.000     104.748
  N      617.219     157.389     103.681
  N      616.986     157.611     105.950
  C      616.344     158.292     106.931
  C      615.453     159.334     106.806
  C      615.121     159.774     105.468
  O      614.364     160.696     105.180
  N      615.072     159.803     108.041
  C      615.750     159.059     108.905
  N      616.535     158.132     108.276
  O      618.026     161.128     112.668
  O      616.686     159.354     113.940
  H      619.548     157.141     107.260
  H      617.464     161.717     113.207
  H      615.588     159.310     103.542
  H      615.722     159.164     109.978
  H      617.552     156.344     108.204
  H      618.801     158.927     109.367
  H      617.004     157.615     102.718
  H      620.440     157.482     110.428
  H      617.839     156.603     103.852
  H      618.502     155.498     111.063
  H      617.599     156.965     112.800
  H      619.372     157.123     112.756
  P      621.511     155.276     109.558
  C      620.847     152.937     110.482
  O      621.372     154.226     110.766
  O      622.236     156.527     110.245
  O      622.275     154.786     108.373
  H      623.187     156.521     110.023
  H      620.817     152.358     111.381
  H      621.471     152.448     109.764
  H      619.857     153.034     110.087

 6  7  8  9  10  11  12  13  14  15  26  29  33  34 0
 6-311+G(2d,p)
 ****
 36  38  39  40  41 0
 6-311+G(2d,p)
 ****
 1  2  3  4  5  16  17  18  19  20  21  22  23  24  25 0
 3-21G
 ****
 27  28  30  31  32  35  37  42  43  44  45  46  47 0
 3-21G
 ****
 48  49 0
 3-21G
 ****


