%nproc=1
%NoSave
%Mem=1900MB
#P OB98/GEN NMR

erre ene a

0 1
  C     -626.588    -889.946     170.824
  O     -627.467    -889.168     171.614
  H     -626.436    -889.448     169.863
  H     -627.022    -890.929     170.642
  H     -625.616    -890.052     171.326
  P     -627.660    -889.618     173.137
  C     -630.099    -890.414     172.726
  O     -628.787    -890.764     173.144
  C     -630.955    -891.667     172.561
  O     -630.515    -892.416     171.399
  C     -630.890    -892.634     173.740
  O     -631.763    -892.242     174.795
  C     -631.347    -893.915     173.081
  O     -632.784    -893.894     172.917
  C     -630.654    -893.839     171.705
  N     -628.176    -898.257     171.762
  C     -629.535    -898.004     171.831
  N     -630.349    -899.063     171.959
  N     -630.051    -896.798     171.803
  C     -629.114    -895.825     171.699
  C     -627.742    -895.953     171.608
  C     -627.185    -897.278     171.629
  O     -625.996    -897.563     171.546
  N     -627.136    -894.725     171.494
  C     -628.131    -893.855     171.540
  N     -629.354    -894.469     171.675
  O     -628.414    -888.368     173.801
  O     -626.401    -889.946     173.875
  H     -633.006    -893.028     172.550
  H     -628.099    -888.253     174.718
  H     -627.822    -899.199     171.802
  H     -628.014    -892.790     171.476
  H     -631.260    -894.290     170.905
  H     -631.115    -894.813     173.666
  H     -630.002    -900.000     172.042
  H     -629.861    -892.753     174.093
  H     -631.335    -898.913     171.997
  H     -631.987    -891.355     172.384
  H     -630.053    -889.883     171.771
  H     -630.536    -889.745     173.479
  P     -631.497    -892.866     176.250
  C     -633.873    -893.920     176.383
  O     -632.458    -894.147     176.358
  O     -632.189    -891.798     177.237
  O     -630.056    -893.092     176.593
  H     -631.792    -891.853     178.108
  H     -634.383    -894.858     176.457
  H     -634.170    -893.422     175.484
  H     -634.122    -893.311     177.227

 6  7  8  9  10  11  12  13  14  15  26  29  33  34 0
 6-311+G(2d,p)
 ****
 36  38  39  40  41 0
 6-311+G(2d,p)
 ****
 1  2  3  4  5  16  17  18  19  20  21  22  23  24  25 0
 3-21G
 ****
 27  28  30  31  32  35  37  42  43  44  45  46  47 0
 3-21G
 ****
 48  49 0
 3-21G
 ****


