%nproc=1
%NoSave
%Mem=1900MB
#P OB98/GEN NMR

erre ene a

0 1
  C      -43.648     -12.504     219.159
  O      -43.457     -11.188     219.637
  H      -42.679     -13.011     219.136
  H      -44.051     -12.482     218.143
  H      -44.319     -13.064     219.816
  P      -44.742     -10.266     219.897
  C      -46.687     -10.276     221.590
  O      -45.660     -11.036     220.963
  C      -48.010     -11.037     221.530
  O      -48.514     -11.061     220.176
  C      -47.899     -12.498     221.958
  O      -47.797     -12.603     223.365
  C      -49.177     -13.059     221.355
  O      -50.316     -12.748     222.174
  C      -49.250     -12.295     220.013
  N      -48.731     -13.073     218.887
  C      -49.681     -13.691     218.077
  O      -50.890     -13.608     218.275
  N      -49.183     -14.451     217.050
  C      -47.863     -14.720     216.818
  O      -47.477     -15.574     216.030
  C      -46.908     -13.978     217.656
  C      -47.379     -13.216     218.647
  O      -45.456      -9.791     218.674
  O      -44.160      -9.040     220.749
  H      -44.033      -8.269     220.161
  H      -50.272     -11.788     222.357
  H      -49.865     -14.943     216.486
  H      -45.849     -14.114     217.463
  H      -46.688     -12.685     219.296
  H      -50.288     -12.017     219.787
  H      -49.145     -14.146     221.252
  H      -47.039     -12.971     221.468
  H      -48.742     -10.503     222.154
  H      -46.792      -9.324     221.056
  H      -46.402     -10.071     222.628
  P      -47.110     -13.876     224.051
  C      -44.677     -14.561     224.461
  O      -45.585     -13.942     223.562
  O      -47.864     -15.157     223.906
  O      -46.975     -13.465     225.597
  H      -47.382     -14.163     226.148
  H      -43.694     -14.551     224.038
  H      -44.981     -15.572     224.635
  H      -44.672     -14.026     225.388

 6  7  8  9  10  11  12  13  14  15  16  27  31  32  33  34  35 0
 6-311+G(2d,p)
 ****
 36  37 0
 6-311+G(2d,p)
 ****
 1  2  3  4  5  17  18  19  20  21  22  23  24  25 0
 3-21G
 ****
 26  28  29  30  38  39  40  41  42  43  44  45 0
 3-21G
 ****


