%nproc=1
%NoSave
%Mem=1900MB
#P OB98/GEN NMR

erre ene a

0 1
  C        1.562    -126.149     -40.235
  O        2.667    -126.794     -40.835
  H        1.912    -125.618     -39.345
  H        0.819    -126.888     -39.928
  H        1.113    -125.427     -40.921
  P        2.463    -127.534     -42.241
  C        4.634    -127.300     -43.615
  O        3.898    -128.094     -42.696
  C        5.404    -126.196     -42.882
  O        6.338    -126.816     -41.961
  C        6.202    -125.280     -43.813
  O        6.154    -123.945     -43.310
  C        7.616    -125.818     -43.709
  O        8.596    -124.823     -43.995
  C        7.656    -126.320     -42.267
  N       12.283    -127.333     -40.511
  C       11.542    -126.170     -40.449
  N       12.125    -125.112     -39.846
  N       10.335    -126.053     -40.938
  C        9.869    -127.198     -41.493
  C       10.504    -128.411     -41.617
  C       11.848    -128.521     -41.090
  O       12.559    -129.519     -41.130
  N        9.709    -129.326     -42.260
  C        8.597    -128.666     -42.524
  N        8.649    -127.368     -42.091
  O        1.751    -126.727     -43.281
  O        1.654    -128.863     -41.875
  H        9.469    -125.204     -43.755
  H        0.720    -128.788     -42.140
  H       13.212    -127.366     -40.129
  H        7.731    -129.077     -43.028
  H        7.903    -125.525     -41.554
  H        7.751    -126.645     -44.418
  H       13.041    -125.139     -39.426
  H        5.826    -125.300     -44.835
  H       11.591    -124.256     -39.759
  H        4.694    -125.621     -42.278
  H        3.930    -126.850     -44.321
  H        5.331    -127.940     -44.168
  P        4.882    -123.029     -43.653
  C        4.881    -121.306     -41.746
  O        5.159    -121.540     -43.119
  O        3.559    -123.600     -43.266
  O        4.988    -122.856     -45.244
  H        4.085    -122.822     -45.618
  H        5.102    -120.287     -41.506
  H        5.485    -121.953     -41.145
  H        3.847    -121.502     -41.553

 6  7  8  9  10  11  12  13  14  15  26  29  33  34 0
 6-311+G(2d,p)
 ****
 36  38  39  40  41 0
 6-311+G(2d,p)
 ****
 1  2  3  4  5  16  17  18  19  20  21  22  23  24  25 0
 3-21G
 ****
 27  28  30  31  32  35  37  42  43  44  45  46  47 0
 3-21G
 ****
 48  49 0
 3-21G
 ****


