%nproc=1
%NoSave
%Mem=1900MB
#P OB98/GEN NMR

erre ene a

0 1
  C     1074.328    -376.878    1125.942
  O     1074.642    -378.008    1126.728
  H     1073.276    -376.610    1126.125
  H     1074.452    -377.101    1124.872
  H     1074.959    -376.024    1126.214
  P     1076.083    -378.695    1126.535
  C     1075.918    -379.209    1129.064
  O     1076.255    -379.700    1127.768
  C     1075.971    -380.343    1130.088
  O     1077.207    -381.075    1129.939
  C     1075.936    -379.857    1131.526
  O     1074.624    -379.473    1131.903
  C     1076.491    -381.069    1132.257
  O     1075.504    -382.089    1132.431
  C     1077.594    -381.545    1131.268
  N     1078.925    -381.072    1131.625
  C     1079.690    -381.930    1132.407
  O     1079.247    -383.027    1132.765
  N     1080.950    -381.525    1132.798
  C     1081.401    -380.359    1132.439
  N     1082.650    -380.018    1132.850
  C     1080.614    -379.415    1131.593
  C     1079.408    -379.833    1131.228
  O     1077.248    -377.778    1126.324
  O     1075.851    -379.682    1125.288
  H     1074.768    -381.684    1132.916
  H     1076.036    -379.223    1124.445
  H     1081.045    -378.465    1131.300
  H     1078.770    -379.202    1130.612
  H     1077.619    -382.648    1131.213
  H     1076.871    -380.802    1133.234
  H     1076.644    -379.022    1131.661
  H     1075.144    -381.045    1129.888
  H     1083.129    -380.689    1133.430
  H     1074.894    -378.819    1129.006
  H     1083.122    -379.182    1132.564
  H     1076.589    -378.402    1129.361
  P     1074.374    -378.125    1132.737
  C     1072.312    -378.144    1131.172
  O     1072.845    -377.722    1132.435
  O     1075.391    -377.032    1132.489
  O     1074.331    -378.630    1134.253
  H     1075.226    -378.862    1134.590
  H     1071.296    -377.820    1131.087
  H     1072.352    -379.211    1131.106
  H     1072.890    -377.716    1130.380

 6  7  8  9  10  11  12  13  14  15  16  26  30  31  32  33  35 0
 6-311+G(2d,p)
 ****
 37  38 0
 6-311+G(2d,p)
 ****
 1  2  3  4  5  17  18  19  20  21  22  23  24  25 0
 3-21G
 ****
 27  28  29  34  36  39  40  41  42  43  44  45  46 0
 3-21G
 ****


