%nproc=1
%NoSave
%Mem=1900MB
#P OB98/GEN NMR

erre ene a

0 1
  C     -328.176    1203.441     667.603
  O     -329.208    1204.295     667.062
  P     -329.316    1204.658     665.499
  C     -330.364    1207.020     665.432
  O     -330.583    1205.623     665.307
  C     -331.168    1207.795     664.377
  O     -330.848    1207.310     663.045
  C     -332.670    1207.652     664.471
  O     -333.221    1208.370     665.554
  C     -333.114    1208.158     663.095
  O     -333.218    1209.584     663.070
  C     -331.939    1207.693     662.186
  N     -332.306    1206.615     661.289
  C     -333.015    1206.973     660.149
  O     -333.384    1208.139     659.969
  N     -333.322    1205.992     659.220
  C     -333.033    1204.763     659.482
  N     -333.337    1203.843     658.520
  C     -332.406    1204.327     660.736
  C     -332.068    1205.297     661.589
  O     -329.315    1203.466     664.602
  O     -328.056    1205.594     665.202
  H     -327.812    1205.526     664.248
  H     -332.419    1209.932     663.538
  H     -332.207    1203.274     660.932
  H     -331.588    1205.062     662.536
  H     -331.563    1208.543     661.613
  H     -334.082    1207.754     662.797
  H     -332.924    1206.583     664.561
  H     -330.875    1208.849     664.443
  H     -333.766    1204.182     657.673
  H     -329.295    1207.216     665.288
  H     -333.132    1202.850     658.617
  H     -330.640    1207.342     666.442
  P     -334.266    1207.592     666.499
  C     -336.421    1208.527     667.593
  O     -335.043    1208.689     667.376
  O     -333.342    1206.837     667.560
  O     -335.158    1206.633     665.768
  H     -333.698    1205.942     667.733
  H     -336.689    1209.008     668.555
  H     -336.704    1207.468     667.667
  H     -336.999    1208.993     666.797
  H     -328.309    1203.347     668.660
  H     -327.216    1203.869     667.401
  H     -328.238    1202.475     667.148

 3  4  5  6  7  8  9  10  11  12  13  24  27  28  29  30  32 0
 6-311+G(2d,p)
 ****
 34  35 0
 6-311+G(2d,p)
 ****
 1  2  14  15  16  17  18  19  20  21  22  23  25  26 0
 3-21G
 ****
 31  33  36  37  38  39  40  41  42  43  44  45  46 0
 3-21G
 ****


