%nproc=1
%NoSave
%Mem=1900MB
#P OB98/GEN NMR

erre ene a

0 1
  C     -899.060    -401.327      30.196
  O     -898.030    -400.800      30.991
  H     -898.780    -402.348      29.904
  H     -899.190    -400.731      29.285
  H     -900.000    -401.365      30.763
  P     -898.070    -399.242      31.403
  C     -896.810    -398.331      29.363
  O     -898.080    -398.442      30.005
  C     -896.940    -397.764      27.944
  O     -897.630    -396.485      27.998
  C     -895.600    -397.531      27.250
  O     -895.660    -398.040      25.906
  C     -895.460    -396.002      27.217
  O     -894.610    -395.569      26.169
  C     -896.940    -395.592      27.119
  N     -897.150    -394.193      27.487
  C     -896.430    -393.233      26.769
  O     -895.610    -393.586      25.901
  N     -896.590    -391.908      27.067
  C     -897.380    -391.558      28.043
  N     -897.490    -390.225      28.296
  C     -898.130    -392.533      28.854
  C     -897.980    -393.823      28.522
  O     -897.010    -398.817      32.367
  O     -899.570    -399.019      31.951
  H     -893.750    -396.063      26.234
  H     -899.580    -398.203      32.515
  H     -898.780    -392.196      29.655
  H     -898.510    -394.608      29.061
  H     -897.320    -395.733      26.105
  H     -895.040    -395.664      28.168
  H     -894.750    -397.992      27.755
  H     -897.590    -398.436      27.372
  H     -896.960    -389.597      27.707
  H     -896.340    -399.322      29.331
  H     -898.070    -389.834      29.030
  H     -896.180    -397.663      29.957
  P     -894.430    -398.973      25.451
  C     -893.120    -397.400      23.864
  O     -893.170    -398.026      25.136
  O     -894.890    -399.512      24.013
  O     -894.150    -400.100      26.398
  H     -895.240    -400.418      24.088
  H     -892.234    -396.805      23.794
  H     -893.980    -396.775      23.740
  H     -893.109    -398.148      23.099

 6  7  8  9  10  11  12  13  14  15  16  26  30  31  32  33  35 0
 6-311+G(2d,p)
 ****
 37  38 0
 6-311+G(2d,p)
 ****
 1  2  3  4  5  17  18  19  20  21  22  23  24  25 0
 3-21G
 ****
 27  28  29  34  36  39  40  41  42  43  44  45  46 0
 3-21G
 ****


