%nproc=1
%NoSave
%Mem=1900MB
#P OB98/GEN NMR

erre ene a

0 1
  C     -224.251    -796.041    1076.064
  O     -223.104    -795.689    1075.313
  H     -224.998    -795.244    1075.930
  H     -224.005    -796.115    1077.120
  H     -224.677    -796.988    1075.699
  P     -221.908    -796.763    1075.184
  C     -220.099    -794.945    1074.714
  O     -220.559    -795.987    1075.595
  C     -219.466    -793.830    1075.509
  O     -220.465    -793.233    1076.393
  C     -218.325    -794.257    1076.434
  O     -217.150    -794.501    1075.704
  C     -218.270    -793.085    1077.404
  O     -217.512    -791.993    1076.829
  C     -219.772    -792.707    1077.537
  N     -220.324    -793.205    1078.791
  C     -220.698    -792.274    1079.733
  O     -220.576    -791.039    1079.575
  N     -221.158    -792.765    1080.943
  C     -221.155    -794.073    1081.303
  O     -221.343    -794.448    1082.453
  C     -220.826    -795.026    1080.249
  C     -220.403    -794.582    1079.057
  O     -221.850    -797.510    1073.903
  O     -222.152    -797.730    1076.442
  H     -222.565    -798.557    1076.106
  H     -216.671    -792.384    1076.526
  H     -221.389    -792.082    1081.639
  H     -220.884    -796.100    1080.484
  H     -220.120    -795.264    1078.272
  H     -219.870    -791.609    1077.497
  H     -217.797    -793.349    1078.333
  H     -218.624    -795.166    1076.993
  H     -219.125    -793.037    1074.796
  H     -220.958    -794.587    1074.143
  H     -219.375    -795.389    1074.012
  P     -216.333    -795.887    1075.926
  C     -214.333    -794.860    1074.632
  O     -214.765    -795.553    1075.814
  O     -216.771    -797.057    1075.103
  O     -216.516    -796.197    1077.502
  H     -216.805    -797.127    1077.599
  H     -213.276    -794.699    1074.679
  H     -214.835    -793.917    1074.568
  H     -214.566    -795.448    1073.769

 6  7  8  9  10  11  12  13  14  15  16  27  31  32  33  34  35 0
 6-311+G(2d,p)
 ****
 36  37 0
 6-311+G(2d,p)
 ****
 1  2  3  4  5  17  18  19  20  21  22  23  24  25 0
 3-21G
 ****
 26  28  29  30  38  39  40  41  42  43  44  45 0
 3-21G
 ****


