%nproc=1
%NoSave
%Mem=1900MB
#P OB98/GEN NMR

erre ene a

0 1
  C     -897.870     367.225    -897.640
  O     -897.430     366.014    -897.010
  P     -898.180     364.661    -897.460
  C     -896.300     362.849    -897.240
  O     -897.060     363.688    -898.120
  C     -894.880     363.406    -897.120
  O     -894.860     364.706    -896.460
  C     -893.970     362.524    -896.270
  O     -893.550     361.380    -897.020
  C     -892.830     363.513    -895.970
  O     -891.950     363.633    -897.100
  C     -893.610     364.809    -895.760
  N     -891.770     367.235    -891.640
  C     -891.300     367.090    -892.880
  N     -891.840     366.437    -893.910
  C     -893.020     365.885    -893.580
  C     -893.640     365.937    -892.340
  C     -892.970     366.657    -891.320
  N     -893.450     366.773    -890.050
  N     -894.850     365.274    -892.350
  C     -894.930     364.772    -893.590
  N     -893.840     365.148    -894.360
  O     -899.060     365.118    -898.720
  O     -899.010     364.055    -896.370
  H     -891.310     362.895    -897.040
  H     -900.000     365.128    -898.460
  H     -890.340     367.586    -893.080
  H     -895.750     364.177    -893.960
  H     -893.080     365.693    -896.190
  H     -892.240     363.200    -895.100
  H     -894.470     362.225    -895.350
  H     -894.460     363.542    -898.120
  H     -896.260     361.834    -897.630
  H     -892.860     367.239    -889.370
  H     -894.300     366.283    -889.780
  H     -896.790     362.822    -896.270
  P     -894.330     360.013    -896.740
  C     -894.640     359.296    -899.200
  O     -895.270     359.820    -898.060
  O     -895.400     360.450    -895.620
  O     -893.480     358.852    -896.400
  H     -895.850     361.289    -895.850
  H     -895.380     359.215    -900.000
  H     -894.220     358.307    -898.980
  H     -893.840     359.982    -899.520
  H     -897.302     368.050    -897.263
  H     -898.908     367.380    -897.429
  H     -897.729     367.149    -898.698

 3  4  5  6  7  8  9  10  11  12  22  25  29  30  31  32 0
 6-311+G(2d,p)
 ****
 33  36  37 0
 6-311+G(2d,p)
 ****
 1  2  13  14  15  16  17  18  19  20  21  23  24  26 0
 3-21G
 ****
 27  28  34  35  38  39  40  41  42  43  44  45  46  47  48 0
 3-21G
 ****


