%nproc=1
%NoSave
%Mem=1900MB
#P OB98/GEN NMR

erre ene a

0 1
  C       59.191      77.167      12.450
  O       59.927      76.683      13.561
  P       61.081      75.602      13.276
  C       59.942      73.507      14.304
  O       60.967      74.483      14.420
  C       59.640      72.867      15.661
  O       58.634      71.832      15.480
  C       60.854      72.214      16.343
  O       60.687      72.406      17.752
  C       60.683      70.754      15.962
  O       61.437      69.858      16.760
  C       59.167      70.621      16.064
  N       56.920      66.069      16.665
  C       57.238      67.041      17.550
  N       57.828      68.231      17.315
  C       58.085      68.382      16.005
  C       57.836      67.474      14.989
  C       57.222      66.267      15.361
  N       56.907      65.274      14.456
  N       58.262      67.967      13.774
  C       58.764      69.154      14.050
  N       58.659      69.455      15.381
  O       62.416      76.390      13.665
  O       61.125      75.081      11.874
  H       61.190      68.935      16.550
  H       63.143      76.178      13.050
  H       56.984      66.834      18.587
  H       59.221      69.821      13.334
  H       58.828      70.576      17.106
  H       61.015      70.616      14.926
  H       61.810      72.647      16.033
  H       59.206      73.634      16.315
  H       60.268      72.718      13.619
  H       56.657      64.376      14.845
  H       57.320      65.343      13.534
  H       59.045      73.971      13.879
  P       61.875      73.090      18.587
  C       62.809      70.698      18.703
  O       62.505      71.874      19.428
  O       61.047      73.865      19.716
  O       62.815      73.942      17.807
  H       60.402      73.281      20.153
  H       63.316      69.997      19.371
  H       63.470      70.929      17.863
  H       61.887      70.236      18.339
  H       58.462      77.875      12.786
  H       58.698      76.350      11.965
  H       59.857      77.642      11.760

 3  4  5  6  7  8  9  10  11  12  22  25  29  30  31  32 0
 6-311+G(2d,p)
 ****
 33  36  37 0
 6-311+G(2d,p)
 ****
 1  2  13  14  15  16  17  18  19  20  21  23  24  26 0
 3-21G
 ****
 27  28  34  35  38  39  40  41  42  43  44  45  46  47  48 0
 3-21G
 ****


