%nproc=1
%NoSave
%Mem=1900MB
#P OB98/GEN NMR

erre ene a

0 1
  C     -221.581      76.321    -887.629
  O     -220.987      76.844    -886.436
  P     -219.646      77.718    -886.621
  C     -219.541      78.803    -884.257
  O     -219.768      78.993    -885.651
  C     -219.355      80.147    -883.556
  O     -218.050      80.695    -883.816
  C     -220.333      81.231    -884.004
  O     -221.598      81.087    -883.391
  C     -219.628      82.490    -883.513
  O     -219.918      82.692    -882.118
  C     -218.145      82.134    -883.706
  N     -215.499      86.042    -885.568
  C     -215.907      85.785    -884.274
  N     -215.538      86.681    -883.331
  N     -216.616      84.742    -883.926
  C     -216.892      83.915    -884.965
  C     -216.547      84.056    -886.289
  C     -215.789      85.238    -886.661
  O     -215.430      85.528    -887.795
  N     -216.994      83.005    -887.041
  C     -217.590      82.210    -886.174
  N     -217.565      82.729    -884.898
  O     -219.828      78.348    -888.079
  O     -218.389      76.925    -886.509
  H     -220.893      82.656    -882.022
  H     -218.959      78.539    -888.475
  H     -214.963      86.862    -885.779
  H     -218.041      81.259    -886.412
  H     -217.538      82.438    -882.844
  H     -219.951      83.389    -884.035
  H     -214.929      87.474    -883.514
  H     -220.412      81.250    -885.101
  H     -215.795      86.495    -882.369
  H     -219.457      79.985    -882.475
  H     -218.655      78.193    -884.105
  H     -220.391      78.257    -883.835
  P     -222.894      81.399    -884.288
  C     -224.515      79.535    -883.503
  O     -223.624      79.990    -884.492
  O     -222.262      81.729    -885.726
  O     -223.743      82.517    -883.774
  H     -222.847      82.341    -886.211
  H     -225.164      80.350    -883.150
  H     -223.955      79.128    -882.654
  H     -225.148      78.747    -883.923
  H     -222.458      75.763    -887.376
  H     -220.882      75.680    -888.124
  H     -221.847      77.129    -888.279

 3  4  5  6  7  8  9  10  11  12  23  26  30  31  33  0
 6-311+G(2d,p)
 ****
 35  36  37  38 0
 6-311+G(2d,p)
 ****
 1  2  13  14  15  16  17  18  19  20  21  22  24  25  27  28  29 0
 3-21G
 ****
 32  34  39  40  41  42  43  44  45  46  47  48  49 0
 3-21G
 ****


