%nproc=1
%NoSave
%Mem=1900MB
#P OB98/GEN NMR

erre ene a

0 1
  C     -250.573     242.229    -235.027
  O     -250.458     241.531    -233.803
  H     -251.465     242.859    -235.016
  H     -249.693     242.863    -235.154
  H     -250.625     241.523    -235.859
  P     -251.675     240.554    -233.425
  C     -253.008     242.421    -232.229
  O     -252.984     241.478    -233.290
  C     -254.442     242.634    -231.749
  O     -254.958     241.361    -231.285
  C     -254.575     243.650    -230.601
  O     -255.591     244.616    -230.901
  C     -255.035     242.814    -229.417
  O     -255.922     243.518    -228.556
  C     -255.708     241.624    -230.092
  N     -258.310     239.301    -226.376
  C     -258.690     240.223    -227.293
  N     -257.976     240.728    -228.316
  C     -256.755     240.163    -228.368
  C     -256.237     239.198    -227.521
  C     -257.068     238.776    -226.470
  N     -256.663     237.879    -225.505
  N     -254.945     238.868    -227.883
  C     -254.672     239.657    -228.907
  N     -255.730     240.467    -229.225
  O     -251.350     240.132    -231.913
  O     -251.810     239.360    -234.310
  H     -256.105     242.940    -227.792
  H     -251.228     239.164    -231.878
  H     -259.700     240.605    -227.182
  H     -253.720     239.711    -229.420
  H     -256.739     241.853    -230.388
  H     -254.156     242.504    -228.840
  H     -253.636     244.166    -230.383
  H     -255.056     242.938    -232.605
  H     -252.603     243.379    -232.581
  H     -257.278     237.722    -224.722
  H     -255.703     237.573    -225.508
  H     -252.379     242.054    -231.410
  P     -255.123     246.155    -230.915
  C     -255.368     246.478    -228.346
  O     -254.498     246.498    -229.475
  O     -256.510     246.957    -230.938
  O     -254.268     246.515    -232.084
  H     -256.536     247.554    -231.708
  H     -254.814     246.724    -227.464
  H     -255.792     245.501    -228.240
  H     -256.151     247.193    -228.487

 6  7  8  9  10  11  12  13  14  15  25  28  32  33  34  35 0
 6-311+G(2d,p)
 ****
 36  39  40 0
 6-311+G(2d,p)
 ****
 1  2  3  4  5  16  17  18  19  20  21  22  23  24 0
 3-21G
 ****
 26  27  29  30  31  37  38  41  42  43  44  45  46  47  48 0
 3-21G
 ****


