%nproc=1
%NoSave
%Mem=1900MB
#P OB98/GEN NMR

erre ene a

0 1
  C      295.197     124.284     113.842
  O      294.266     123.680     114.756
  P      294.491     122.153     115.208
  C      295.559     122.694     117.535
  O      294.499     122.087     116.810
  C      295.664     122.079     118.933
  O      296.904     122.468     119.566
  C      294.572     122.513     119.896
  O      293.343     121.851     119.640
  C      295.187     122.146     121.238
  O      294.989     120.752     121.533
  C      296.682     122.442     120.995
  N      297.119     123.685     121.627
  C      297.688     123.569     122.890
  O      297.774     122.499     123.495
  N      298.124     124.736     123.458
  C      297.989     125.985     122.925
  O      298.381     126.998     123.493
  C      297.307     126.053     121.626
  C      296.904     124.919     121.050
  O      296.041     121.930     114.861
  O      293.643     121.140     114.513
  H      295.516     120.557     122.332
  H      296.199     120.986     114.666
  H      298.564     124.671     124.362
  H      297.157     127.030     121.182
  H      296.400     124.950     120.084
  H      297.297     121.618     121.377
  H      294.756     122.712     122.068
  H      294.442     123.600     119.847
  H      295.670     120.983     118.823
  H      295.361     123.769     117.631
  H      296.492     122.558     116.980
  P      292.025     122.769     119.586
  C      291.526     123.084     117.041
  O      291.284     122.359     118.226
  O      292.669     124.209     119.299
  O      291.209     122.688     120.834
  H      293.463     124.147     118.743
  H      292.556     123.452     116.998
  H      290.836     123.930     116.985
  H      291.351     122.427     116.186
  H      294.902     125.294     113.648
  H      295.205     123.733     112.925
  H      296.177     124.275     114.273

 3  4  5  6  7  8  9  10  11  12  13  23  28  29  30  31  32 0
 6-311+G(2d,p)
 ****
 33  34 0
 6-311+G(2d,p)
 ****
 1  2  14  15  16  17  18  19  20  21  22  24  25  26 0
 3-21G
 ****
 27  35  36  37  38  39  40  41  42  43  44  45 0
 3-21G
 ****


