%nproc=1
%NoSave
%Mem=1900MB
#P OB98/GEN NMR

erre ene a

0 1
  C     -148.063    -119.688     260.012
  O     -146.810    -120.234     259.671
  H     -148.099    -119.438     261.078
  H     -148.224    -118.774     259.432
  H     -148.861    -120.401     259.774
  P     -146.344    -121.528     260.502
  C     -145.634    -123.059     258.533
  O     -145.210    -122.250     259.626
  C     -144.823    -122.723     257.285
  O     -145.138    -121.393     256.821
  C     -143.312    -122.729     257.487
  O     -142.780    -124.052     257.487
  C     -142.859    -121.944     256.263
  O     -142.839    -122.807     255.112
  C     -143.972    -120.894     256.117
  N     -141.258    -116.592     255.368
  C     -141.386    -117.715     254.622
  N     -142.113    -118.823     254.889
  C     -142.777    -118.689     256.049
  C     -142.751    -117.604     256.911
  C     -141.938    -116.515     256.540
  N     -141.806    -115.379     257.304
  N     -143.561    -117.820     258.005
  C     -144.076    -119.016     257.809
  N     -143.627    -119.583     256.643
  O     -147.598    -122.519     260.381
  O     -145.985    -121.279     261.931
  H     -142.269    -123.569     255.340
  H     -147.692    -123.023     261.212
  H     -140.830    -117.736     253.695
  H     -144.783    -119.503     258.477
  H     -144.269    -120.768     255.062
  H     -141.858    -121.516     256.370
  H     -143.025    -122.186     258.395
  H     -145.113    -123.430     256.493
  H     -146.696    -122.866     258.331
  H     -141.377    -114.568     256.893
  H     -142.322    -115.330     258.175
  H     -145.507    -124.113     258.797
  P     -141.326    -124.260     258.138
  C     -142.316    -126.046     259.745
  O     -141.344    -125.748     258.750
  O     -141.367    -123.324     259.440
  O     -140.178    -123.923     257.250
  H     -140.463    -123.058     259.688
  H     -142.208    -127.064     260.055
  H     -143.296    -125.898     259.342
  H     -142.175    -125.400     260.586

 6  7  8  9  10  11  12  13  14  15  25  28  32  33  34  35 0
 6-311+G(2d,p)
 ****
 36  39  40 0
 6-311+G(2d,p)
 ****
 1  2  3  4  5  16  17  18  19  20  21  22  23  24 0
 3-21G
 ****
 26  27  29  30  31  37  38  41  42  43  44  45  46  47  48 0
 3-21G
 ****


