%nproc=1
%NoSave
%Mem=1900MB
#P OB98/GEN NMR

erre ene a

0 1
  C      -33.883     572.132    -395.294
  O      -33.812     570.787    -395.763
  P      -34.715     569.718    -394.980
  C      -34.835     568.151    -397.043
  O      -35.552     568.878    -396.062
  C      -35.671     566.972    -397.564
  O      -35.688     565.863    -396.637
  C      -37.122     567.340    -397.823
  O      -37.246     568.007    -399.063
  C      -37.786     565.956    -397.818
  O      -37.680     565.321    -399.107
  C      -36.967     565.201    -396.763
  N      -37.411     562.343    -392.593
  C      -36.795     562.062    -393.797
  N      -36.172     560.858    -393.893
  N      -36.770     562.888    -394.812
  C      -37.421     564.042    -394.573
  C      -38.048     564.451    -393.408
  C      -38.073     563.531    -392.294
  O      -38.586     563.743    -391.204
  N      -38.542     565.732    -393.528
  C      -38.326     566.040    -394.801
  N      -37.588     565.088    -395.445
  O      -35.817     570.631    -394.247
  O      -33.940     568.887    -393.995
  H      -38.337     565.721    -399.717
  H      -35.650     570.621    -393.283
  H      -37.407     561.667    -391.841
  H      -38.647     566.957    -395.276
  H      -36.766     564.164    -397.087
  H      -38.859     566.032    -397.597
  H      -36.157     560.183    -393.143
  H      -37.514     567.945    -396.997
  H      -35.711     560.644    -394.764
  H      -35.199     566.626    -398.499
  H      -33.905     567.782    -396.624
  H      -34.565     568.829    -397.862
  P      -38.332     569.187    -399.174
  C      -36.433     570.956    -399.242
  O      -37.635     570.526    -398.646
  O      -39.391     568.817    -398.027
  O      -38.992     569.298    -400.508
  H      -40.293     568.933    -398.371
  H      -36.372     572.040    -399.178
  H      -36.369     570.657    -400.293
  H      -35.582     570.524    -398.694
  H      -33.243     572.751    -395.888
  H      -33.568     572.170    -394.272
  H      -34.891     572.484    -395.370

 3  4  5  6  7  8  9  10  11  12  23  26  30  31 0
 6-311+G(2d,p)
 ****
 33  35  36  37  38 0
 6-311+G(2d,p)
 ****
 1  2  13  14  15  16  17  18  19  20  21  22  24  25 0
 3-21G
 ****
 27  28  29  32  34  39  40  41  42  43  44  45  46  47  48  49 0
 3-21G
 ****


