%nproc=1
%NoSave
%Mem=1900MB
#P OB98/GEN NMR

erre ene a

0 1
  C     -899.497      49.724     582.928
  O     -898.087      49.587     583.178
  P     -897.347      48.387     582.402
  C     -895.937      49.886     580.818
  O     -896.957      48.892     580.930
  C     -895.877      50.457     579.393
  O     -895.197      49.560     578.489
  C     -897.257      50.788     578.807
  O     -897.117      51.932     577.970
  C     -897.527      49.560     577.917
  O     -898.507      49.865     576.913
  C     -896.097      49.305     577.389
  N     -895.947      47.947     576.859
  C     -896.677      47.614     575.706
  O     -897.457      48.421     575.235
  N     -896.507      46.378     575.182
  C     -895.727      45.522     575.741
  N     -895.617      44.290     575.151
  C     -894.977      45.788     576.986
  C     -895.137      47.019     577.474
  O     -898.507      47.315     582.147
  O     -896.227      47.781     583.182
  H     -898.147      50.569     576.346
  H     -898.227      46.440     582.418
  H     -894.377      45.029     577.426
  H     -894.617      47.326     578.383
  H     -895.857      50.009     576.565
  H     -897.867      48.725     578.522
  H     -898.037      50.936     579.560
  H     -895.287      51.387     579.439
  H     -896.137      44.143     574.295
  H     -894.977      49.439     581.064
  H     -895.057      43.541     575.513
  H     -896.127      50.666     581.557
  P     -897.267      53.361     578.659
  C     -894.867      53.983     577.938
  O     -895.747      53.779     579.014
  O     -897.857      52.997     580.097
  O     -898.087      54.415     577.968
  H     -898.037      53.813     580.579
  H     -893.907      54.366     578.335
  H     -895.287      54.683     577.224
  H     -894.657      53.022     577.445
  H     -899.881      50.548     583.493
  H     -900.000      48.826     583.220
  H     -899.659      49.900     581.885

 3  4  5  6  7  8  9  10  11  12  13  21  23  27  28  29  30  32 0
 6-311+G(2d,p)
 ****
 34  35 0
 6-311+G(2d,p)
 ****
 1  2  14  15  16  17  18  19  20  22  24  25  26 0
 3-21G
 ****
 31  33  36  37  38  39  40  41  42  43  44  45  46 0
 3-21G
 ****


