%nproc=1
%NoSave
%Mem=1900MB
#P OB98/GEN NMR

erre ene a

0 1
  C       24.511      99.078     -10.752
  O       24.151     100.084      -9.804
  P       22.695     100.762      -9.840
  C       21.692     102.966     -10.674
  O       22.716     101.996     -10.869
  C       21.315     103.726     -11.953
  O       22.478     104.366     -12.537
  C       20.676     102.869     -13.047
  O       19.741     103.720     -13.719
  C       21.860     102.550     -13.945
  O       21.468     102.128     -15.243
  C       22.633     103.873     -13.881
  N       24.040     103.712     -14.240
  C       24.339     103.619     -15.602
  O       23.434     103.618     -16.439
  N       25.652     103.480     -15.984
  C       26.573     103.347     -15.079
  N       27.851     103.186     -15.518
  C       26.292     103.352     -13.629
  C       25.019     103.546     -13.287
  O       22.120     101.083      -8.498
  O       21.786      99.673     -10.593
  H       21.017     102.876     -15.689
  H       20.869      99.738     -10.264
  H       27.090     103.208     -12.911
  H       24.710     103.571     -12.248
  H       22.188     104.614     -14.559
  H       22.452     101.741     -13.497
  H       20.182     101.972     -12.665
  H       20.627     104.531     -11.662
  H       27.997     103.165     -16.521
  H       22.033     103.682      -9.915
  H       28.623     102.960     -14.906
  H       20.803     102.466     -10.266
  P       18.162     103.477     -13.644
  C       16.509     101.726     -14.520
  O       17.853     102.180     -14.536
  O       17.325     104.671     -13.975
  O       17.891     102.970     -12.148
  H       16.943     103.070     -11.939
  H       16.375     100.983     -15.311
  H       15.814     102.560     -14.692
  H       16.288     101.259     -13.555
  H       25.513      98.754     -10.565
  H       24.445      99.480     -11.741
  H       23.844      98.246     -10.660

 3  4  5  6  7  8  9  10  11  12  13  23  27  28  29  30  32 0
 6-311+G(2d,p)
 ****
 34  35 0
 6-311+G(2d,p)
 ****
 1  2  14  15  16  17  18  19  20  21  22  24  25  26 0
 3-21G
 ****
 31  33  36  37  38  39  40  41  42  43  44  45  46 0
 3-21G
 ****


