%nproc=1
%NoSave
%Mem=1900MB
#P OB98/GEN NMR

erre ene a

0 1
  C        8.024     146.639    -269.791
  O        9.386     146.288    -269.935
  H        7.885     147.108    -268.812
  H        7.383     145.756    -269.852
  H        7.739     147.359    -270.565
  P        9.798     145.357    -271.177
  C       12.372     145.548    -271.264
  O       11.256     144.782    -270.817
  C       13.607     145.269    -270.405
  O       13.351     145.637    -269.033
  C       14.003     143.801    -270.356
  O       14.513     143.301    -271.575
  C       14.857     143.732    -269.099
  O       16.223     144.064    -269.323
  C       14.197     144.811    -268.206
  N       13.461     144.224    -267.090
  C       14.211     143.449    -266.212
  O       15.416     143.238    -266.350
  N       13.520     142.884    -265.177
  C       12.174     142.974    -264.973
  O       11.603     142.408    -264.046
  C       11.429     143.783    -265.950
  C       12.096     144.364    -266.952
  O        9.719     146.001    -272.528
  O        8.856     144.074    -271.019
  H       16.668     143.252    -269.637
  H        8.821     143.554    -271.858
  H       14.048     142.330    -264.524
  H       10.359     143.875    -265.821
  H       11.570     144.966    -267.687
  H       14.964     145.476    -267.787
  H       14.839     142.734    -268.657
  H       13.100     143.215    -270.145
  H       14.432     145.890    -270.774
  H       12.107     146.606    -271.177
  H       12.579     145.320    -272.315
  P       15.054     141.809    -271.753
  C       13.610     141.274    -273.844
  O       14.920     141.405    -273.303
  O       14.640     140.814    -270.716
  O       16.647     142.029    -271.598
  H       17.011     141.238    -271.159
  H       13.676     141.003    -274.877
  H       13.091     142.205    -273.752
  H       13.078     140.515    -273.310

 6  7  8  9  10  11  12  13  14  15  16  26  31  32  33  34  35 0
 6-311+G(2d,p)
 ****
 36  37 0
 6-311+G(2d,p)
 ****
 1  2  3  4  5  17  18  19  20  21  22  23  24  25 0
 3-21G
 ****
 27  28  29  30  38  39  40  41  42  43  44  45 0
 3-21G
 ****


