%nproc=1
%NoSave
%Mem=1900MB
#P OB98/GEN NMR

erre ene a

0 1
  C      -33.807    -317.625     118.297
  O      -33.873    -318.784     117.473
  P      -35.216    -319.449     116.929
  C      -34.235    -321.874     117.210
  O      -34.877    -320.913     116.383
  C      -33.201    -322.686     116.417
  O      -33.906    -323.682     115.616
  C      -32.391    -321.819     115.447
  O      -31.004    -322.141     115.416
  C      -33.162    -321.953     114.146
  O      -32.401    -321.613     112.998
  C      -33.663    -323.393     114.219
  N      -35.634    -325.114     109.837
  C      -34.313    -324.917     110.185
  N      -33.390    -325.199     109.240
  N      -33.929    -324.467     111.349
  C      -34.953    -324.151     112.172
  C      -36.302    -324.287     111.936
  C      -36.714    -324.833     110.663
  O      -37.872    -325.047     110.311
  N      -37.041    -323.871     113.015
  C      -36.143    -323.465     113.890
  N      -34.857    -323.624     113.426
  O      -36.065    -318.586     116.058
  O      -36.057    -319.759     118.270
  H      -31.893    -322.403     112.730
  H      -37.001    -319.668     118.029
  H      -35.872    -325.485     108.934
  H      -36.365    -323.065     114.872
  H      -32.920    -324.104     113.855
  H      -34.005    -321.252     114.189
  H      -33.620    -325.429     108.287
  H      -32.400    -320.770     115.765
  H      -32.449    -324.844     109.420
  H      -32.553    -323.216     117.121
  H      -35.029    -322.535     117.575
  H      -33.781    -321.394     118.079
  P      -29.750    -321.176     115.629
  C      -29.482    -319.941     113.399
  O      -29.007    -320.989     114.223
  O      -28.701    -322.039     116.474
  O      -30.059    -319.899     116.340
  H      -28.534    -321.605     117.334
  H      -29.088    -320.084     112.388
  H      -29.125    -318.981     113.785
  H      -30.573    -319.941     113.359
  H      -32.784    -317.399     118.513
  H      -34.333    -317.807     119.211
  H      -34.255    -316.798     117.786

 3  4  5  6  7  8  9  10  11  12  23  26  30  31 0
 6-311+G(2d,p)
 ****
 33  35  36  37  38 0
 6-311+G(2d,p)
 ****
 1  2  13  14  15  16  17  18  19  20  21  22  24  25 0
 3-21G
 ****
 27  28  29  32  34  39  40  41  42  43  44  45  46  47  48  49 0
 3-21G
 ****


