%nproc=1
%NoSave
%Mem=1900MB
#P OB98/GEN NMR

erre ene a

0 1
  C     -181.800     454.251    -213.047
  O     -181.980     455.654    -212.966
  P     -181.355     456.414    -211.693
  C     -183.783     457.135    -211.084
  O     -182.550     456.586    -210.637
  C     -184.959     456.366    -210.488
  O     -184.855     454.959    -210.801
  C     -185.045     456.433    -208.968
  O     -185.642     457.632    -208.511
  C     -185.937     455.241    -208.670
  O     -187.317     455.590    -208.901
  C     -185.471     454.218    -209.717
  N     -184.912     449.603    -207.705
  C     -186.013     450.175    -208.321
  N     -187.139     449.429    -208.349
  N     -186.007     451.367    -208.858
  C     -184.813     451.998    -208.752
  C     -183.655     451.536    -208.169
  C     -183.677     450.217    -207.559
  O     -182.748     449.679    -206.960
  N     -182.644     452.459    -208.256
  C     -183.185     453.476    -208.895
  N     -184.511     453.270    -209.176
  O     -181.131     457.909    -212.231
  O     -180.099     455.807    -211.164
  H     -187.568     456.223    -208.197
  H     -180.509     458.381    -211.648
  H     -184.971     448.688    -207.295
  H     -182.668     454.391    -209.157
  H     -186.307     453.653    -210.141
  H     -185.861     454.897    -207.637
  H     -187.228     448.537    -207.895
  H     -184.059     456.274    -208.507
  H     -187.980     449.848    -208.735
  H     -185.886     456.747    -210.946
  H     -183.823     457.083    -212.173
  H     -183.833     458.192    -210.792
  P     -184.739     458.600    -207.603
  C     -186.544     459.076    -205.798
  O     -185.316     458.447    -206.118
  O     -185.208     460.064    -208.052
  O     -183.265     458.398    -207.764
  H     -184.491     460.708    -207.910
  H     -186.916     458.663    -204.850
  H     -187.292     458.908    -206.572
  H     -186.385     460.158    -205.668
  H     -182.264     453.883    -213.938
  H     -182.246     453.784    -212.194
  H     -180.754     454.026    -213.071

 3  4  5  6  7  8  9  10  11  12  23  26  30  31 0
 6-311+G(2d,p)
 ****
 33  35  36  37  38 0
 6-311+G(2d,p)
 ****
 1  2  13  14  15  16  17  18  19  20  21  22  24  25 0
 3-21G
 ****
 27  28  29  32  34  39  40  41  42  43  44  45  46  47  48  49 0
 3-21G
 ****


