%nproc=1
%NoSave
%Mem=1900MB
#P OB98/GEN NMR

erre ene a

0 1
  C      354.014      27.084     822.723
  O      353.639      28.394     823.113
  P      354.790      29.381     823.641
  C      354.914      28.344     826.038
  O      354.633      29.479     825.229
  C      355.323      28.794     827.441
  O      356.554      29.543     827.398
  C      354.311      29.720     828.106
  O      353.205      28.997     828.625
  C      355.156      30.388     829.177
  O      355.244      29.563     830.349
  C      356.521      30.500     828.471
  N      356.808      31.851     828.010
  C      356.975      32.818     828.996
  O      356.871      32.566     830.195
  N      357.239      34.084     828.556
  C      357.290      34.494     827.261
  O      357.466      35.656     826.928
  C      357.070      33.439     826.254
  C      356.846      32.188     826.669
  O      354.340      30.820     823.117
  O      356.171      29.027     823.187
  H      355.875      29.996     830.959
  H      355.124      31.351     822.877
  H      357.388      34.795     829.265
  H      357.101      33.727     825.207
  H      356.666      31.391     825.943
  H      357.325      30.201     829.161
  H      354.733      31.350     829.493
  H      353.965      30.478     827.384
  H      355.481      27.903     828.060
  H      355.729      27.770     825.581
  H      354.026      27.707     826.081
  P      351.748      29.380     828.056
  C      351.789      31.675     829.310
  O      351.155      30.427     829.112
  O      350.952      28.007     828.328
  O      351.769      29.802     826.622
  H      351.275      27.553     829.136
  H      352.225      32.059     828.379
  H      352.583      31.554     830.048
  H      351.065      32.387     829.678
  H      353.148      26.547     822.397
  H      354.455      26.577     823.555
  H      354.722      27.139     821.923

 3  4  5  6  7  8  9  10  11  12  13  23  28  29  30  31  32 0
 6-311+G(2d,p)
 ****
 33  34 0
 6-311+G(2d,p)
 ****
 1  2  14  15  16  17  18  19  20  21  22  24  25  26 0
 3-21G
 ****
 27  35  36  37  38  39  40  41  42  43  44  45 0
 3-21G
 ****


