%nproc=1
%NoSave
%Mem=1900MB
#P OB98/GEN NMR

erre ene a

0 1
  C      -19.776     117.077      53.290
  O      -19.456     116.010      52.421
  P      -18.066     115.228      52.547
  C      -18.940     113.887      54.547
  O      -17.908     114.735      54.063
  C      -18.371     112.725      55.359
  O      -19.461     111.974      55.954
  C      -17.518     111.747      54.540
  O      -16.430     111.333      55.374
  C      -18.468     110.591      54.291
  O      -17.783     109.381      53.997
  C      -19.267     110.591      55.598
  N      -20.535     109.890      55.474
  C      -21.646     110.479      56.082
  O      -21.504     111.471      56.798
  N      -22.880     109.917      55.875
  C      -22.968     108.769      55.277
  N      -24.214     108.282      55.032
  C      -21.786     107.999      54.842
  C      -20.618     108.629      54.930
  O      -16.880     115.955      52.005
  O      -18.309     113.860      51.748
  H      -17.603     113.749      51.083
  H      -17.129     109.208      54.706
  H      -21.900     106.994      54.465
  H      -19.695     108.159      54.611
  H      -18.685     110.128      56.405
  H      -19.120     110.827      53.442
  H      -17.122     112.193      53.623
  H      -17.778     113.142      56.183
  H      -25.000     108.857      55.308
  H      -19.485     113.489      53.689
  H      -24.390     107.582      54.314
  H      -19.647     114.469      55.150
  P      -15.102     110.770      54.667
  C      -13.698     112.791      55.490
  O      -14.126     112.010      54.394
  O      -15.640     110.435      53.190
  O      -14.491     109.548      55.272
  H      -15.074     109.744      52.797
  H      -13.102     113.625      55.111
  H      -13.077     112.194      56.162
  H      -14.556     113.193      56.035
  H      -20.743     117.462      53.041
  H      -19.046     117.852      53.187
  H      -19.781     116.725      54.300

 3  4  5  6  7  8  9  10  11  12  13  24  27  28  29  30  32 0
 6-311+G(2d,p)
 ****
 34  35 0
 6-311+G(2d,p)
 ****
 1  2  14  15  16  17  18  19  20  21  22  23  25  26 0
 3-21G
 ****
 31  33  36  37  38  39  40  41  42  43  44  45  46 0
 3-21G
 ****


