%nproc=1
%NoSave
%Mem=1900MB
#P OB98/GEN NMR

erre ene a

0 1
  C     -309.894    -371.877     127.287
  O     -310.896    -372.543     126.546
  H     -310.361    -371.402     128.155
  H     -309.432    -371.101     126.674
  H     -309.136    -372.582     127.637
  P     -310.467    -373.444     125.291
  C     -310.810    -371.706     123.414
  O     -309.868    -372.453     124.171
  C     -310.301    -371.486     121.982
  O     -309.071    -370.708     122.042
  C     -310.003    -372.788     121.230
  O     -310.370    -372.627     119.857
  C     -308.491    -372.918     121.346
  O     -307.931    -373.681     120.275
  C     -308.039    -371.457     121.353
  N     -303.209    -372.958     121.400
  C     -304.238    -373.260     120.517
  N     -303.932    -374.109     119.501
  N     -305.450    -372.783     120.621
  C     -305.608    -371.935     121.666
  C     -304.675    -371.548     122.609
  C     -303.343    -372.113     122.492
  O     -302.396    -371.885     123.253
  N     -305.217    -370.688     123.523
  C     -306.476    -370.548     123.143
  N     -306.760    -371.290     122.019
  O     -311.525    -374.375     124.788
  O     -309.178    -374.240     125.796
  H     -308.146    -374.621     120.442
  H     -309.387    -375.173     125.985
  H     -302.303    -373.361     121.273
  H     -307.211    -369.925     123.627
  H     -307.933    -371.046     120.345
  H     -308.235    -373.413     122.289
  H     -303.008    -374.490     119.355
  H     -310.526    -373.638     121.652
  H     -304.656    -374.316     118.827
  H     -311.036    -370.874     121.440
  H     -310.955    -370.729     123.908
  H     -311.767    -372.236     123.396
  P     -311.582    -373.498     119.267
  C     -310.088    -375.150     117.977
  O     -311.066    -375.000     118.998
  O     -312.335    -372.876     118.140
  O     -312.541    -373.683     120.550
  H     -313.475    -373.689     120.257
  H     -309.822    -376.182     117.887
  H     -309.219    -374.578     118.229
  H     -310.487    -374.802     117.047

 6  7  8  9  10  11  12  13  14  15  26  29  33  34 0
 6-311+G(2d,p)
 ****
 36  38  39  40  41 0
 6-311+G(2d,p)
 ****
 1  2  3  4  5  16  17  18  19  20  21  22  23  24  25 0
 3-21G
 ****
 27  28  30  31  32  35  37  42  43  44  45  46  47 0
 3-21G
 ****
 48  49 0
 3-21G
 ****


