%nproc=1
%NoSave
%Mem=1900MB
#P OB98/GEN NMR

erre ene a

0 1
  C      -59.100     160.212     -33.086
  O      -59.936     161.309     -33.374
  P      -59.914     162.103     -34.755
  C      -61.043     160.256     -36.221
  O      -59.886     161.040     -35.954
  C      -61.568     160.514     -37.641
  O      -62.607     159.545     -37.931
  C      -62.208     161.907     -37.761
  O      -61.890     162.590     -38.967
  C      -63.680     161.628     -37.485
  O      -64.550     162.640     -37.966
  C      -63.855     160.245     -38.105
  N      -68.869     159.702     -37.496
  C      -68.183     160.533     -38.359
  N      -68.925     161.458     -39.006
  N      -66.889     160.479     -38.538
  C      -66.269     159.581     -37.739
  C      -66.842     158.704     -36.847
  C      -68.275     158.751     -36.684
  O      -68.912     158.112     -35.847
  N      -65.898     157.987     -36.160
  C      -64.751     158.453     -36.610
  N      -64.925     159.447     -37.546
  O      -58.996     163.279     -34.836
  O      -61.428     162.659     -34.835
  H      -64.478     162.653     -38.938
  H      -61.391     163.530     -35.278
  H      -69.860     159.846     -37.342
  H      -63.771     158.133     -36.274
  H      -64.056     160.310     -39.176
  H      -63.809     161.588     -36.398
  H      -69.895     161.618     -38.779
  H      -61.823     162.575     -36.984
  H      -68.424     162.227     -39.443
  H      -60.755     160.361     -38.358
  H      -61.794     160.555     -35.482
  H      -60.831     159.196     -36.073
  P      -61.722     164.156     -39.215
  C      -59.158     164.146     -39.169
  O      -60.340     164.632     -38.562
  O      -62.814     164.846     -38.274
  O      -61.916     164.588     -40.632
  H      -63.216     165.604     -38.740
  H      -58.320     164.308     -38.485
  H      -58.969     164.693     -40.095
  H      -59.242     163.076     -39.382
  H      -59.307     159.856     -32.098
  H      -58.076     160.518     -33.148
  H      -59.282     159.430     -33.793

 3  4  5  6  7  8  9  10  11  12  23  26  30  31 0
 6-311+G(2d,p)
 ****
 33  35  36  37  38 0
 6-311+G(2d,p)
 ****
 1  2  13  14  15  16  17  18  19  20  21  22  24  25 0
 3-21G
 ****
 27  28  29  32  34  39  40  41  42  43  44  45  46  47  48  49 0
 3-21G
 ****


