%nproc=1
%NoSave
%Mem=1900MB
#P OB98/GEN NMR

erre ene a

0 1
  C      370.685     -33.769    -635.794
  O      371.732     -34.685    -635.535
  H      369.880     -33.904    -635.067
  H      371.077     -32.751    -635.696
  H      370.301     -33.898    -636.807
  P      371.366     -36.247    -635.637
  C      373.580     -36.697    -634.356
  O      372.187     -36.963    -634.461
  C      374.068     -37.056    -632.948
  O      373.650     -36.046    -632.006
  C      373.513     -38.370    -632.414
  O      374.235     -39.494    -632.905
  C      373.747     -38.182    -630.925
  O      375.138     -38.407    -630.615
  C      373.380     -36.706    -630.735
  N      370.199     -35.501    -626.915
  C      371.535     -35.664    -626.963
  N      372.304     -35.983    -628.015
  C      371.564     -36.151    -629.114
  C      370.187     -36.036    -629.229
  C      369.484     -35.685    -628.057
  N      368.116     -35.537    -628.012
  N      369.766     -36.324    -630.514
  C      370.884     -36.567    -631.176
  N      371.995     -36.494    -630.370
  O      372.130     -36.727    -636.964
  O      369.908     -36.572    -635.673
  H      375.341     -39.324    -630.883
  H      371.734     -37.552    -637.297
  H      372.059     -35.499    -626.014
  H      370.941     -36.814    -632.226
  H      374.002     -36.218    -629.969
  H      373.167     -38.883    -630.309
  H      372.434     -38.469    -632.602
  H      375.167     -37.065    -632.964
  H      373.758     -35.632    -634.538
  H      367.704     -35.466    -627.091
  H      367.573     -35.818    -628.811
  H      374.124     -37.285    -635.105
  P      373.441     -40.888    -633.008
  C      375.721     -42.076    -633.446
  O      374.520     -42.033    -632.671
  O      373.193     -41.057    -634.582
  O      372.165     -40.946    -632.222
  H      372.408     -41.599    -634.748
  H      376.335     -42.884    -633.108
  H      376.252     -41.154    -633.333
  H      375.475     -42.222    -634.477

 6  7  8  9  10  11  12  13  14  15  25  28  32  33  34  35 0
 6-311+G(2d,p)
 ****
 36  39  40 0
 6-311+G(2d,p)
 ****
 1  2  3  4  5  16  17  18  19  20  21  22  23  24 0
 3-21G
 ****
 26  27  29  30  31  37  38  41  42  43  44  45  46  47 0
 3-21G
 ****
 48 0
 3-21G
 ****


