%nproc=1
%NoSave
%Mem=1900MB
#P OB98/GEN NMR

erre ene a

0 1
  C      430.215    -120.468    -822.588
  O      430.793    -119.440    -823.392
  P      431.202    -119.822    -824.901
  C      433.521    -120.636    -823.951
  O      432.412    -120.876    -824.813
  C      434.807    -121.232    -824.547
  O      435.223    -120.426    -825.672
  C      436.010    -121.256    -823.596
  O      436.967    -122.204    -824.098
  C      436.545    -119.858    -823.753
  O      437.893    -119.752    -823.298
  C      436.335    -119.584    -825.256
  N      436.037    -118.167    -825.574
  C      436.894    -117.488    -826.431
  O      437.879    -117.992    -826.963
  N      436.597    -116.161    -826.665
  C      435.534    -115.486    -826.143
  O      435.368    -114.274    -826.301
  C      434.586    -116.284    -825.350
  C      434.889    -117.554    -825.097
  O      431.882    -118.484    -825.448
  O      430.056    -120.264    -825.740
  H      437.912    -120.150    -822.393
  H      431.285    -118.031    -826.066
  H      437.242    -115.643    -827.232
  H      433.691    -115.786    -824.984
  H      434.196    -118.155    -824.494
  H      437.223    -119.864    -825.849
  H      435.945    -119.155    -823.159
  H      435.764    -121.493    -822.553
  H      434.602    -122.244    -824.916
  H      433.314    -121.060    -822.968
  H      433.652    -119.556    -823.815
  P      436.794    -123.744    -823.683
  C      437.334    -123.595    -821.170
  O      436.318    -123.745    -822.138
  O      437.940    -124.639    -824.004
  O      435.456    -124.179    -824.451
  H      435.412    -125.147    -824.526
  H      436.908    -123.111    -820.290
  H      438.172    -122.994    -821.541
  H      437.701    -124.588    -820.881
  H      429.994    -120.079    -821.616
  H      430.905    -121.281    -822.498
  H      429.313    -120.815    -823.047

 3  4  5  6  7  8  9  10  11  12  13  23  28  29  30  31  32 0
 6-311+G(2d,p)
 ****
 33  34 0
 6-311+G(2d,p)
 ****
 1  2  14  15  16  17  18  19  20  21  22  24  25  26  27 0
 3-21G
 ****
 35  36  37  38  39  40  41  42  43  44  45 0
 3-21G
 ****


