%nproc=1
%NoSave
%Mem=1900MB
#P OB98/GEN NMR

erre ene a

0 1
  C       58.159    -113.814      29.582
  O       56.992    -113.190      29.050
  P       55.855    -112.686      30.064
  C       54.216    -113.766      31.736
  O       55.067    -113.973      30.613
  C       53.138    -114.851      31.811
  O       52.092    -114.630      30.844
  C       53.670    -116.244      31.521
  O       54.417    -116.743      32.616
  C       52.381    -116.998      31.216
  O       51.730    -117.414      32.428
  C       51.534    -115.919      30.502
  N       51.463    -116.106      29.060
  C       50.176    -116.225      28.519
  O       49.190    -116.209      29.255
  N       50.047    -116.373      27.159
  C       51.108    -116.409      26.410
  N       50.918    -116.555      25.071
  C       52.479    -116.299      26.942
  C       52.583    -116.160      28.263
  O       54.992    -111.574      29.567
  O       56.703    -112.229      31.348
  H       50.918    -117.882      32.151
  H       56.225    -111.507      31.803
  H       53.331    -116.329      26.276
  H       53.555    -116.075      28.738
  H       50.508    -115.924      30.891
  H       52.568    -117.900      30.625
  H       54.302    -116.217      30.621
  H       52.695    -114.824      32.816
  H       49.967    -116.637      24.730
  H       53.747    -112.780      31.661
  H       51.674    -116.543      24.401
  H       54.828    -113.754      32.646
  P       55.970    -117.067      32.373
  C       57.302    -119.059      31.384
  O       56.058    -118.389      31.474
  O       56.461    -117.566      33.816
  O       56.786    -115.906      31.897
  H       57.387    -117.294      33.960
  H       57.122    -120.075      31.015
  H       57.795    -119.122      32.359
  H       57.951    -118.538      30.677
  H       58.813    -114.089      28.781
  H       57.877    -114.689      30.129
  H       58.662    -113.132      30.235

 3  4  5  6  7  8  9  10  11  12  13  23  27  28  29  30  32 0
 6-311+G(2d,p)
 ****
 34  35 0
 6-311+G(2d,p)
 ****
 1  2  14  15  16  17  18  19  20  21  22  24  25  26 0
 3-21G
 ****
 31  33  36  37  38  39  40  41  42  43  44  45  46 0
 3-21G
 ****


