%nproc=1
%NoSave
%Mem=1900MB
#P OB98/GEN NMR

erre ene a

0 1
  C     -164.202      58.228    -326.414
  O     -164.947      57.027    -326.348
  H     -163.139      58.003    -326.539
  H     -164.543      58.804    -327.278
  H     -164.357      58.820    -325.512
  P     -164.573      56.029    -325.148
  C     -166.477      56.845    -323.595
  O     -165.075      56.733    -323.790
  C     -166.825      56.574    -322.133
  O     -166.113      55.382    -321.707
  C     -166.442      57.720    -321.176
  O     -167.551      58.066    -320.337
  C     -165.348      57.128    -320.307
  O     -165.375      57.609    -318.971
  C     -165.631      55.633    -320.385
  N     -162.160      54.507    -316.823
  C     -163.408      55.015    -316.724
  N     -164.320      55.205    -317.700
  C     -163.843      54.767    -318.882
  C     -162.601      54.208    -319.133
  C     -161.729      54.103    -318.036
  N     -160.436      53.636    -318.147
  N     -162.467      53.892    -320.472
  C     -163.594      54.296    -321.032
  N     -164.445      54.846    -320.106
  O     -162.976      56.137    -325.062
  O     -165.017      54.621    -325.351
  H     -164.727      57.092    -318.460
  H     -162.593      55.258    -325.236
  H     -163.715      55.323    -315.724
  H     -163.819      54.261    -322.089
  H     -166.415      55.331    -319.677
  H     -164.373      57.372    -320.745
  H     -166.093      58.614    -321.705
  H     -167.895      56.358    -322.062
  H     -166.993      56.110    -324.224
  H     -159.843      53.703    -317.338
  H     -160.074      53.436    -319.066
  H     -166.798      57.850    -323.888
  P     -168.136      59.558    -320.512
  C     -170.087      58.753    -322.031
  O     -168.958      59.607    -321.899
  O     -166.828      60.426    -320.809
  O     -168.868      60.059    -319.321
  H     -166.753      61.146    -320.159
  H     -170.529      58.893    -322.995
  H     -170.804      58.989    -321.272
  H     -169.778      57.734    -321.925

 6  7  8  9  10  11  12  13  14  15  25  28  32  33  34  35 0
 6-311+G(2d,p)
 ****
 36  39  40 0
 6-311+G(2d,p)
 ****
 1  2  3  4  5  16  17  18  19  20  21  22  23  24 0
 3-21G
 ****
 26  27  29  30  31  37  38  41  42  43  44  45  46  47  48 0
 3-21G
 ****


