%nproc=1
%NoSave
%Mem=1900MB
#P OB98/GEN NMR

erre ene a

0 1
  C      639.664    -897.602     417.768
  O      638.430    -897.222     417.189
  H      639.745    -898.692     417.730
  H      639.701    -897.282     418.816
  H      640.494    -897.162     417.213
  P      638.122    -895.662     416.972
  C      638.348    -895.842     414.409
  O      638.833    -895.232     415.607
  C      637.800    -894.782     413.473
  O      638.771    -893.732     413.276
  C      637.485    -895.312     412.070
  O      636.270    -896.032     412.070
  C      637.449    -894.002     411.276
  O      636.173    -893.342     411.438
  C      638.594    -893.202     411.925
  N      639.829    -893.252     411.168
  C      640.110    -892.122     410.403
  O      639.381    -891.142     410.317
  N      641.300    -892.172     409.693
  C      642.118    -893.252     409.604
  O      643.122    -893.282     408.880
  C      641.761    -894.422     410.410
  C      640.647    -894.372     411.153
  O      638.408    -894.782     418.151
  O      636.557    -895.642     416.605
  H      636.103    -893.112     412.384
  H      636.049    -895.312     417.371
  H      641.514    -891.362     409.121
  H      642.408    -895.292     410.370
  H      640.341    -895.222     411.752
  H      638.294    -892.162     412.050
  H      637.580    -894.172     410.207
  H      638.300    -895.922     411.701
  H      636.905    -894.322     413.942
  H      637.555    -896.552     414.680
  H      639.183    -896.402     413.943
  P      635.917    -896.992     410.834
  C      636.031    -899.022     412.406
  O      636.464    -898.472     411.168
  O      636.313    -896.472     409.482
  O      634.337    -897.192     410.914
  H      633.905    -896.842     410.102
  H      636.449    -900.000     412.528
  H      634.963    -899.088     412.413
  H      636.355    -898.394     413.209

 6  7  8  9  10  11  12  13  14  15  16  26  31  32  33  34  35 0
 6-311+G(2d,p)
 ****
 36  37 0
 6-311+G(2d,p)
 ****
 1  2  3  4  5  17  18  19  20  21  22  23  24  25 0
 3-21G
 ****
 27  28  29  30  38  39  40  41  42  43  44  45 0
 3-21G
 ****


