%nproc=1
%NoSave
%Mem=1900MB
#P OB98/GEN NMR

erre ene a

0 1
  C     -153.254     244.887    -108.083
  O     -151.884     245.176    -107.865
  H     -153.522     244.011    -107.486
  H     -153.443     244.664    -109.137
  H     -153.869     245.731    -107.762
  P     -151.175     246.242    -108.835
  C     -149.981     244.313    -110.068
  O     -150.849     245.436    -110.188
  C     -148.941     244.292    -111.183
  O     -149.575     244.178    -112.478
  C     -148.096     245.554    -111.274
  O     -147.233     245.769    -110.181
  C     -147.511     245.443    -112.673
  O     -146.359     244.601    -112.717
  C     -148.682     244.776    -113.442
  N     -149.379     245.718    -114.314
  C     -149.076     245.636    -115.665
  O     -148.252     244.852    -116.134
  N     -149.731     246.532    -116.477
  C     -150.602     247.498    -116.065
  O     -151.141     248.279    -116.840
  C     -150.855     247.557    -114.615
  C     -150.247     246.681    -113.816
  O     -149.990     246.957    -108.254
  O     -152.366     247.218    -109.270
  H     -145.660     245.044    -112.209
  H     -152.016     248.055    -109.668
  H     -149.534     246.475    -117.466
  H     -151.532     248.321    -114.255
  H     -150.420     246.697    -112.742
  H     -148.307     243.955    -114.070
  H     -147.217     246.416    -113.080
  H     -148.775     246.419    -111.294
  H     -148.310     243.404    -111.047
  H     -150.595     243.405    -110.131
  H     -149.486     244.338    -109.089
  P     -146.710     247.208    -109.731
  C     -144.442     246.835    -110.984
  O     -145.566     247.679    -110.754
  O     -146.469     247.412    -108.273
  O     -147.946     248.159    -110.159
  H     -147.993     248.880    -109.500
  H     -143.784     247.301    -111.688
  H     -144.775     245.896    -111.374
  H     -143.922     246.674    -110.063

 6  7  8  9  10  11  12  13  14  15  16  26  31  32  33  34  35 0
 6-311+G(2d,p)
 ****
 36  37 0
 6-311+G(2d,p)
 ****
 1  2  3  4  5  17  18  19  20  21  22  23  24  25 0
 3-21G
 ****
 27  28  29  30  38  39  40  41  42  43  44  45 0
 3-21G
 ****


