%nproc=1
%NoSave
%Mem=1900MB
#P OB98/GEN NMR

erre ene a

0 1
  C     1191.047    -792.028    -288.437
  O     1190.217    -792.419    -289.552
  P     1188.656    -792.077    -289.434
  C     1188.585    -790.483    -291.503
  O     1188.421    -790.599    -290.078
  C     1188.875    -789.002    -291.889
  O     1187.765    -788.167    -291.425
  C     1190.170    -788.409    -291.302
  O     1190.753    -787.534    -292.281
  C     1189.645    -787.535    -290.164
  O     1190.589    -786.531    -289.820
  C     1188.347    -787.030    -290.750
  N     1187.060    -783.024    -287.928
  C     1187.964    -783.122    -288.969
  N     1188.643    -781.991    -289.256
  N     1188.197    -784.230    -289.642
  C     1187.401    -785.243    -289.239
  C     1186.415    -785.303    -288.264
  C     1186.246    -784.055    -287.494
  O     1185.472    -783.924    -286.526
  N     1185.852    -786.523    -288.150
  C     1186.462    -787.257    -289.072
  N     1187.421    -786.523    -289.779
  O     1188.407    -791.824    -287.883
  O     1187.734    -793.145    -289.973
  H     1190.696    -785.936    -290.583
  H     1187.728    -792.440    -287.535
  H     1186.928    -782.168    -287.419
  H     1186.287    -788.305    -289.268
  H     1188.498    -786.257    -291.486
  H     1189.526    -788.162    -289.269
  H     1188.481    -781.085    -288.820
  H     1190.897    -789.147    -291.001
  H     1189.319    -782.044    -290.052
  H     1188.884    -788.930    -292.997
  H     1187.681    -790.829    -292.008
  H     1189.426    -791.098    -291.787
  P     1192.144    -787.971    -292.930
  C     1191.366    -788.143    -295.402
  O     1191.789    -788.824    -294.247
  O     1192.664    -789.102    -291.886
  O     1193.148    -786.914    -293.129
  H     1193.667    -789.174    -291.916
  H     1191.471    -787.077    -295.322
  H     1190.278    -788.346    -295.550
  H     1191.922    -788.522    -296.263
  H     1192.061    -792.308    -288.632
  H     1190.706    -792.519    -287.549
  H     1190.989    -790.968    -288.303

 3  4  5  6  7  8  9  10  11  12  23  26  30  31  33  0
 6-311+G(2d,p)
 ****
 35  36  37  38 0
 6-311+G(2d,p)
 ****
 1  2  13  14  15  16  17  18  19  20  21  22  24  25  27  28  29 0
 3-21G
 ****
 32  34  39  40  41  42  43  44  45  46  47  48  49 0
 3-21G
 ****


