%nproc=1
%NoSave
%Mem=1900MB
#P OB98/GEN NMR

erre ene a

0 1
  C      323.951    -636.618     347.857
  O      324.982    -635.715     348.203
  P      325.317    -635.396     349.742
  C      323.996    -634.274     351.654
  O      324.147    -634.421     350.231
  C      323.832    -632.799     352.030
  O      322.849    -632.157     351.192
  C      323.348    -632.578     353.468
  O      324.419    -632.764     354.380
  C      322.829    -631.146     353.385
  O      323.897    -630.192     353.507
  C      322.227    -631.109     351.954
  N      320.770    -631.223     351.961
  C      320.065    -630.026     352.043
  O      320.658    -628.951     352.142
  N      318.690    -630.080     352.069
  C      318.094    -631.232     352.026
  N      316.718    -631.197     352.068
  C      318.804    -632.513     351.972
  C      320.128    -632.444     351.943
  O      326.704    -634.916     350.011
  O      324.972    -636.780     350.484
  H      324.550    -630.431     352.805
  H      325.653    -637.464     350.305
  H      318.249    -633.450     351.952
  H      320.733    -633.341     351.896
  H      322.500    -630.166     351.457
  H      322.102    -630.932     354.173
  H      322.517    -633.260     353.688
  H      324.796    -632.297     351.874
  H      316.262    -630.304     352.141
  H      324.895    -634.674     352.138
  H      316.149    -632.043     352.087
  H      323.130    -634.869     351.996
  P      324.100    -632.879     355.950
  C      322.544    -631.608     357.536
  O      323.409    -631.520     356.410
  O      325.255    -633.346     356.803
  O      322.895    -633.957     356.011
  H      323.080    -634.572     356.731
  H      322.398    -630.597     357.945
  H      322.973    -632.250     358.316
  H      321.580    -632.014     357.232
  H      323.886    -636.694     346.792
  H      323.020    -636.263     348.247
  H      324.167    -637.581     348.271

 3  4  5  6  7  8  9  10  11  12  13  23  27  28  29  30  32 0
 6-311+G(2d,p)
 ****
 34  35 0
 6-311+G(2d,p)
 ****
 1  2  14  15  16  17  18  19  20  21  22  24  25  26 0
 3-21G
 ****
 31  33  36  37  38  39  40  41  42  43  44  45  46 0
 3-21G
 ****


