%nproc=1
%NoSave
%Mem=1900MB
#P OB98/GEN NMR

erre ene a

0 1
  C      168.300     -51.566     171.194
  O      167.097     -50.865     170.969
  H      168.226     -52.548     170.721
  H      168.450     -51.703     172.269
  H      169.157     -51.036     170.770
  P      167.085     -49.276     171.154
  C      165.732     -49.061     168.968
  O      165.828     -48.698     170.339
  C      164.421     -48.582     168.342
  O      163.298     -49.241     168.968
  C      164.196     -47.083     168.540
  O      164.830     -46.244     167.593
  C      162.677     -46.980     168.433
  O      162.267     -46.865     167.061
  C      162.205     -48.310     169.025
  N      158.247     -48.545     172.247
  C      158.259     -48.683     170.873
  N      157.056     -48.845     170.279
  N      159.349     -48.644     170.154
  C      160.465     -48.379     170.873
  C      160.576     -48.210     172.235
  C      159.368     -48.309     173.029
  O      159.303     -48.187     174.248
  N      161.875     -47.960     172.607
  C      162.533     -47.904     171.467
  N      161.725     -48.178     170.388
  O      168.327     -48.784     170.266
  O      167.209     -48.795     172.567
  H      161.306     -47.017     167.014
  H      168.668     -47.940     170.611
  H      157.382     -48.611     172.752
  H      163.593     -47.697     171.368
  H      161.386     -48.743     168.436
  H      162.294     -46.097     168.953
  H      156.183     -48.764     170.777
  H      164.490     -46.784     169.552
  H      156.995     -48.684     169.272
  H      164.407     -48.856     167.280
  H      165.789     -50.150     168.926
  H      166.587     -48.669     168.411
  P      166.112     -45.384     168.015
  C      167.273     -45.742     165.713
  O      166.768     -44.828     166.663
  O      167.143     -46.504     168.508
  O      165.862     -44.358     169.066
  H      167.106     -46.592     169.479
  H      167.672     -45.205     164.878
  H      166.484     -46.383     165.381
  H      168.046     -46.331     166.160

 6  7  8  9  10  11  12  13  14  15  26  29  33  34 0
 6-311+G(2d,p)
 ****
 36  38  39  40  41 0
 6-311+G(2d,p)
 ****
 1  2  3  4  5  16  17  18  19  20  21  22  23  24  25 0
 3-21G
 ****
 27  28  30  31  32  35  37  42  43  44  45  46  47 0
 3-21G
 ****
 48  49 0
 3-21G
 ****


