%nproc=1
%NoSave
%Mem=1900MB
#P OB98/GEN NMR

erre ene a

0 1
  C      404.211      -2.881     -98.266
  O      404.692      -2.149     -99.375
  P      403.677      -1.625    -100.497
  C      405.690      -1.042    -101.985
  O      404.421      -1.684    -101.917
  C      406.543      -1.662    -103.089
  O      406.872      -3.035    -102.773
  C      405.857      -1.721    -104.444
  O      405.771      -0.449    -105.053
  C      406.740      -2.727    -105.172
  O      407.928      -2.096    -105.673
  C      407.091      -3.709    -104.036
  N      406.331      -4.949    -104.115
  C      406.786      -5.891    -105.044
  O      407.727      -5.626    -105.791
  N      406.154      -7.109    -105.101
  C      405.089      -7.317    -104.390
  N      404.543      -8.560    -104.443
  C      404.485      -6.285    -103.522
  C      405.163      -5.146    -103.414
  O      403.009      -0.324    -100.196
  O      402.595      -2.801    -100.618
  H      401.700      -2.412    -100.561
  H      407.630      -1.396    -106.289
  H      403.559      -6.488    -103.003
  H      404.806      -4.339    -102.782
  H      408.162      -3.953    -104.062
  H      406.230      -3.187    -106.028
  H      404.849      -2.139    -104.328
  H      407.478      -1.089    -103.157
  H      404.995      -9.245    -105.035
  H      406.192      -1.155    -101.022
  H      403.935      -8.920    -103.711
  H      405.539       0.028    -102.171
  P      404.306       0.071    -105.449
  C      405.367       2.013    -106.791
  O      404.446       0.942    -106.784
  O      403.982       1.158    -104.317
  O      403.259      -0.996    -105.491
  H      403.034       1.122    -104.087
  H      405.598       2.269    -107.829
  H      406.297       1.745    -106.278
  H      404.918       2.883    -106.306
  H      405.030      -3.143     -97.629
  H      403.727      -3.771     -98.609
  H      403.512      -2.283     -97.720

 3  4  5  6  7  8  9  10  11  12  13  24  27  28  29  30  32 0
 6-311+G(2d,p)
 ****
 34  35 0
 6-311+G(2d,p)
 ****
 1  2  14  15  16  17  18  19  20  21  22  23  25  26 0
 3-21G
 ****
 31  33  36  37  38  39  40  41  42  43  44  45  46 0
 3-21G
 ****


