%nproc=1
%NoSave
%Mem=1900MB
#P OB98/GEN NMR

erre ene a

0 1
  C     -895.370    -360.750     375.178
  O     -895.420    -359.640     376.068
  P     -894.410    -358.418     375.819
  C     -896.190    -356.731     374.899
  O     -895.050    -357.538     374.632
  C     -895.820    -355.239     374.802
  O     -895.240    -354.972     373.513
  C     -897.020    -354.310     374.921
  O     -897.410    -354.140     376.273
  C     -896.480    -353.036     374.284
  O     -895.720    -352.272     375.215
  C     -895.560    -353.602     373.173
  N     -896.160    -353.506     371.835
  C     -895.720    -352.473     371.039
  O     -894.880    -351.658     371.405
  N     -896.300    -352.378     369.795
  C     -897.310    -353.167     369.323
  O     -897.820    -352.992     368.218
  C     -897.770    -354.235     370.222
  C     -897.200    -354.343     371.428
  O     -893.150    -359.106     375.130
  O     -894.050    -357.664     377.043
  H     -895.080    -352.894     375.627
  H     -892.330    -358.658     375.420
  H     -895.980    -351.646     369.190
  H     -898.560    -354.878     369.880
  H     -897.510    -355.120     372.109
  H     -894.620    -353.053     373.160
  H     -897.280    -352.391     373.911
  H     -897.850    -354.696     374.305
  H     -895.080    -355.029     375.582
  H     -896.560    -356.949     375.907
  H     -896.990    -356.976     374.198
  P     -898.990    -353.977     376.561
  C     -899.240    -356.000     378.194
  O     -899.500    -355.448     376.928
  O     -899.510    -353.692     375.065
  O     -899.290    -352.892     377.551
  H     -899.000    -354.175     374.393
  H     -899.250    -355.235     378.978
  H     -898.230    -356.476     378.171
  H     -900.000    -356.740     378.410
  H     -896.098    -361.477     375.473
  H     -894.395    -361.189     375.210
  H     -895.580    -360.419     374.182

 3  4  5  6  7  8  9  10  11  12  13  23  28  29  30  31  32 0
 6-311+G(2d,p)
 ****
 33  34 0
 6-311+G(2d,p)
 ****
 1  2  14  15  16  17  18  19  20  21  22  24  25  26 0
 3-21G
 ****
 27  35  36  37  38  39  40  41  42  43  44  45 0
 3-21G
 ****


