%nproc=1
%NoSave
%Mem=1900MB
#P OB98/GEN NMR

erre ene a

0 1
  C      -96.688      43.012      -6.330
  O      -97.776      42.275      -6.861
  P      -98.118      40.852      -6.196
  C      -96.896      39.760      -8.221
  O      -97.084      39.792      -6.815
  C      -95.757      38.803      -8.588
  O      -94.508      39.374      -8.123
  C      -95.871      37.401      -7.975
  O      -95.286      36.487      -8.911
  C      -94.995      37.496      -6.740
  O      -94.558      36.223      -6.277
  C      -93.884      38.406      -7.250
  N      -91.654      37.810      -2.745
  C      -92.349      36.896      -3.519
  N      -92.403      35.631      -3.046
  N      -92.934      37.192      -4.650
  C      -92.781      38.492      -5.001
  C      -92.150      39.499      -4.305
  C      -91.476      39.147      -3.075
  O      -90.778      39.903      -2.405
  N      -92.282      40.707      -4.940
  C      -92.918      40.413      -6.055
  N      -93.201      39.079      -6.161
  O      -99.511      40.465      -6.878
  O      -98.185      40.836      -4.699
  H      -93.955      35.848      -6.953
  H     -100.264      40.745      -6.322
  H      -91.209      37.517      -1.893
  H      -93.194      41.122      -6.824
  H      -93.127      37.860      -7.830
  H      -95.554      37.975      -5.925
  H      -91.949      35.324      -2.199
  H      -96.901      37.106      -7.744
  H      -92.876      34.933      -3.608
  H      -95.701      38.740      -9.682
  H      -96.633      40.766      -8.567
  H      -97.830      39.459      -8.709
  P      -96.173      35.246      -9.402
  C      -94.684      33.654      -8.002
  O      -95.995      34.069      -8.329
  O      -95.362      34.709     -10.675
  O      -97.581      35.588      -9.774
  H      -95.984      34.334     -11.327
  H      -94.705      33.170      -7.019
  H      -93.989      34.498      -7.964
  H      -94.337      32.930      -8.744
  H      -96.582      43.930      -6.869
  H      -95.790      42.438      -6.423
  H      -96.871      43.224      -5.297

 3  4  5  6  7  8  9  10  11  12  23  26  30  31 0
 6-311+G(2d,p)
 ****
 33  35  36  37  38 0
 6-311+G(2d,p)
 ****
 1  2  13  14  15  16  17  18  19  20  21  22  24  25 0
 3-21G
 ****
 27  28  29  32  34  39  40  41  42  43  44  45  46  47  48  49 0
 3-21G
 ****


