%nproc=1
%NoSave
%Mem=1900MB
#P OB98/GEN NMR

erre ene a

0 1
  C      138.942      42.922      -3.722
  O      139.143      42.084      -4.844
  P      138.915      42.636      -6.327
  C      136.681      41.392      -6.483
  O      137.331      42.651      -6.599
  C      135.238      41.464      -6.981
  O      134.508      42.433      -6.179
  C      135.086      41.880      -8.450
  O      133.946      41.182      -8.961
  C      134.771      43.363      -8.348
  O      134.135      43.876      -9.512
  C      133.903      43.370      -7.095
  N      131.872      48.048      -7.436
  C      131.795      46.974      -8.249
  N      132.386      45.771      -8.102
  C      133.118      45.736      -6.977
  C      133.315      46.760      -6.066
  C      132.635      47.965      -6.320
  N      132.674      49.058      -5.484
  N      134.182      46.356      -5.068
  C      134.496      45.114      -5.372
  N      133.827      44.677      -6.481
  O      139.721      41.964      -7.389
  O      139.278      44.191      -6.223
  H      134.015      44.838      -9.399
  H      140.143      44.357      -6.648
  H      131.172      47.093      -9.131
  H      135.197      44.493      -4.832
  H      132.880      43.031      -7.298
  H      135.699      43.927      -8.193
  H      135.970      41.679      -9.063
  H      134.769      40.487      -6.810
  H      136.685      41.106      -5.428
  H      132.045      49.817      -5.693
  H      133.010      48.936      -4.531
  H      137.237      40.634      -7.048
  P      133.986      40.557     -10.436
  C      132.884      42.601     -11.509
  O      134.043      41.792     -11.453
  O      132.939      39.535     -10.726
  O      135.462      39.936     -10.537
  H      135.497      39.297     -11.275
  H      132.136      42.121     -12.145
  H      133.149      43.572     -11.940
  H      132.464      42.758     -10.512
  H      139.144      42.373      -2.826
  H      137.928      43.265      -3.710
  H      139.602      43.762      -3.782

 3  4  5  6  7  8  9  10  11  12  22  25  29  30  31  32 0
 6-311+G(2d,p)
 ****
 33  36  37 0
 6-311+G(2d,p)
 ****
 1  2  13  14  15  16  17  18  19  20  21  23  24  26 0
 3-21G
 ****
 27  28  34  35  38  39  40  41  42  43  44  45  46  47  48 0
 3-21G
 ****


