%nproc=1
%NoSave
%Mem=1900MB
#P OB98/GEN NMR

erre ene a

0 1
  C      185.332      98.316     234.185
  O      185.394      98.510     232.786
  H      186.285      97.905     234.523
  H      184.536      97.612     234.440
  H      185.162      99.270     234.693
  P      184.074      99.001     232.024
  C      183.519      96.793     230.798
  O      183.971      98.135     230.679
  C      182.530      96.451     229.675
  O      181.386      97.347     229.767
  C      183.117      96.605     228.261
  O      182.451      95.660     227.415
  C      182.695      98.021     227.918
  O      182.838      98.282     226.543
  C      181.283      98.041     228.504
  N      180.758      99.389     228.661
  C      180.344     100.031     227.491
  O      180.441      99.465     226.403
  N      179.857     101.310     227.581
  C      179.849     101.917     228.724
  N      179.370     103.191     228.742
  C      180.334     101.296     229.976
  C      180.766     100.043     229.874
  O      183.945     100.475     231.829
  O      182.876      98.425     232.918
  H      182.253      97.693     226.013
  H      182.473      99.148     233.434
  H      180.325     101.851     230.901
  H      181.143      99.499     230.734
  H      180.589      97.469     227.872
  H      183.330      98.747     228.438
  H      184.199      96.449     228.230
  H      182.151      95.433     229.837
  H      179.059     103.581     227.861
  H      183.026      96.697     231.770
  H      179.336     103.768     229.569
  H      184.366      96.103     230.763
  P      182.936      94.139     227.259
  C      184.666      94.622     225.405
  O      183.486      93.912     225.770
  O      181.924      93.133     227.697
  O      184.256      94.030     228.164
  H      184.327      93.121     228.515
  H      184.926      94.385     224.395
  H      185.468      94.340     226.055
  H      184.490      95.674     225.491

 6  7  8  9  10  11  12  13  14  15  16  26  30  31  32  33  35 0
 6-311+G(2d,p)
 ****
 37  38 0
 6-311+G(2d,p)
 ****
 1  2  3  4  5  17  18  19  20  21  22  23  24  25 0
 3-21G
 ****
 27  28  29  34  36  39  40  41  42  43  44  45  46 0
 3-21G
 ****


