%nproc=1
%NoSave
%Mem=1900MB
#P OB98/GEN NMR

erre ene a

0 1
  C      -65.512       3.652    -173.895
  O      -66.735       3.760    -174.597
  H      -64.796       3.076    -174.484
  H      -65.112       4.658    -173.735
  H      -65.667       3.176    -172.923
  P      -67.582       2.409    -174.783
  C      -69.787       3.663    -174.211
  O      -69.074       2.876    -175.155
  C      -71.291       3.587    -174.479
  O      -71.620       4.495    -175.563
  C      -71.769       2.189    -174.883
  O      -73.045       1.945    -174.287
  C      -71.914       2.286    -176.392
  O      -72.846       1.341    -176.907
  C      -72.338       3.744    -176.562
  N      -74.367       5.466    -180.918
  C      -74.921       5.140    -179.732
  N      -74.307       4.692    -178.616
  C      -72.975       4.644    -178.796
  C      -72.267       4.943    -179.949
  C      -73.022       5.365    -181.054
  N      -72.470       5.665    -182.279
  N      -70.913       4.734    -179.752
  C      -70.811       4.316    -178.506
  N      -72.031       4.241    -177.891
  O      -67.719       1.881    -173.274
  O      -66.980       1.383    -175.684
  H      -72.744       1.310    -177.881
  H      -66.891       1.434    -173.011
  H      -76.002       5.243    -179.671
  H      -69.889       4.048    -178.009
  H      -73.414       3.888    -176.400
  H      -70.943       2.104    -176.869
  H      -71.073       1.400    -174.587
  H      -71.824       3.948    -173.591
  H      -69.453       4.705    -174.292
  H      -73.092       5.906    -183.033
  H      -71.478       5.538    -182.417
  H      -69.572       3.297    -173.201
  P      -73.117       0.778    -173.185
  C      -74.863       2.002    -171.710
  O      -74.552       0.841    -172.466
  O      -72.101       1.275    -172.051
  O      -72.730      -0.567    -173.712
  H      -71.485       0.556    -171.818
  H      -75.843       1.904    -171.293
  H      -74.831       2.861    -172.347
  H      -74.149       2.116    -170.921

 6  7  8  9  10  11  12  13  14  15  25  28  32  33  34  35 0
 6-311+G(2d,p)
 ****
 36  39  40 0
 6-311+G(2d,p)
 ****
 1  2  3  4  5  16  17  18  19  20  21  22  23  24 0
 3-21G
 ****
 26  27  29  30  31  37  38  41  42  43  44  45  46  47 0
 3-21G
 ****
 48 0
 3-21G
 ****


