%nproc=1
%NoSave
%Mem=1900MB
#P OB98/GEN NMR

erre ene a

0 1
  C     -739.852     621.424    -194.542
  O     -739.592     622.447    -195.479
  H     -740.751     621.656    -193.965
  H     -740.012     620.486    -195.079
  H     -738.996     621.300    -193.867
  P     -739.429     623.933    -194.885
  C     -741.961     624.460    -195.105
  O     -740.848     624.317    -194.229
  C     -742.848     625.607    -194.639
  O     -743.524     625.251    -193.413
  C     -742.102     626.904    -194.324
  O     -741.770     627.626    -195.506
  C     -743.151     627.630    -193.490
  O     -744.114     628.249    -194.361
  C     -743.803     626.488    -192.705
  N     -743.346     628.800    -188.138
  C     -743.899     629.206    -189.303
  N     -743.973     628.550    -190.477
  C     -743.414     627.324    -190.373
  C     -742.819     626.774    -189.251
  C     -742.790     627.563    -188.090
  N     -742.210     627.140    -186.909
  N     -742.375     625.493    -189.518
  C     -742.692     625.283    -190.781
  N     -743.319     626.362    -191.339
  O     -739.367     624.857    -196.192
  O     -738.239     624.148    -194.010
  H     -744.512     627.529    -194.893
  H     -738.753     625.596    -196.032
  H     -744.341     630.206    -189.291
  H     -742.499     624.361    -191.317
  H     -744.896     626.600    -192.665
  H     -742.723     628.422    -192.864
  H     -741.218     626.713    -193.708
  H     -743.613     625.778    -195.409
  H     -742.546     623.534    -195.101
  H     -742.398     627.665    -186.071
  H     -741.806     626.211    -186.886
  H     -741.594     624.649    -196.116
  P     -740.560     628.672    -195.414
  C     -742.031     630.638    -196.249
  O     -741.241     630.109    -195.197
  O     -740.034     628.745    -196.928
  O     -739.476     628.301    -194.457
  H     -739.091     629.014    -196.933
  H     -742.415     631.594    -195.960
  H     -742.844     629.973    -196.453
  H     -741.429     630.746    -197.127

 6  7  8  9  10  11  12  13  14  15  25  28  32  33  34  35 0
 6-311+G(2d,p)
 ****
 36  39  40 0
 6-311+G(2d,p)
 ****
 1  2  3  4  5  16  17  18  19  20  21  22  23  24 0
 3-21G
 ****
 26  27  29  30  31  37  38  41  42  43  44  45  46  47  48 0
 3-21G
 ****


