%nproc=1
%NoSave
%Mem=1900MB
#P OB98/GEN NMR

erre ene a

0 1
  C     -126.756       7.170     159.040
  O     -127.477       6.035     159.493
  P     -128.770       6.194     160.429
  C     -130.742       4.643     160.993
  O     -129.697       4.935     160.072
  C     -131.503       3.396     160.546
  O     -132.309       3.745     159.394
  C     -130.644       2.217     160.098
  O     -130.187       1.385     161.153
  C     -131.649       1.443     159.248
  O     -132.532       0.694     160.105
  C     -132.415       2.569     158.549
  N     -132.084       0.960     153.702
  C     -132.720       0.454     154.783
  N     -132.743       0.931     156.044
  C     -132.051       2.075     156.128
  C     -131.355       2.724     155.116
  C     -131.389       2.114     153.846
  N     -130.761       2.647     152.740
  N     -130.755       3.871     155.592
  C     -131.091       3.925     156.862
  N     -131.882       2.872     157.234
  O     -129.431       7.527     160.349
  O     -128.242       5.849     161.898
  H     -133.088       0.137     159.522
  H     -128.879       6.172     162.565
  H     -133.276      -0.463     154.614
  H     -130.787       4.697     157.550
  H     -133.481       2.345     158.437
  H     -131.171       0.724     158.575
  H     -129.812       2.546     159.462
  H     -132.184       3.099     161.353
  H     -131.431       5.497     161.016
  H     -130.946       2.214     151.853
  H     -130.385       3.584     152.813
  H     -130.324       4.513     161.995
  P     -129.203       0.172     160.756
  C     -126.901      -0.652     161.704
  O     -128.007       0.218     161.825
  O     -128.784       0.155     159.330
  O     -130.035      -1.120     161.198
  H     -130.169      -1.220     162.159
  H     -126.137      -0.349     162.422
  H     -126.472      -0.600     160.699
  H     -127.207      -1.676     161.924
  H     -125.934       6.852     158.433
  H     -126.386       7.717     159.882
  H     -127.403       7.797     158.463

 3  4  5  6  7  8  9  10  11  12  22  25  29  30  31  32 0
 6-311+G(2d,p)
 ****
 33  36  37 0
 6-311+G(2d,p)
 ****
 1  2  13  14  15  16  17  18  19  20  21  23  24  26 0
 3-21G
 ****
 27  28  34  35  38  39  40  41  42  43  44  45  46  47  48 0
 3-21G
 ****


