%nproc=1
%NoSave
%Mem=1900MB
#P OB98/GEN NMR

erre ene a

0 1
  C     -306.710    -144.412    -159.630
  O     -308.029    -143.919    -159.492
  H     -306.754    -145.491    -159.787
  H     -306.136    -144.209    -158.722
  H     -306.220    -143.948    -160.491
  P     -308.186    -142.339    -159.274
  C     -310.165    -142.125    -157.601
  O     -309.737    -142.078    -158.955
  C     -311.686    -142.227    -157.546
  O     -312.276    -141.123    -158.270
  C     -312.244    -143.484    -158.201
  O     -312.123    -144.625    -157.371
  C     -313.683    -143.068    -158.456
  O     -314.495    -143.246    -157.288
  C     -313.548    -141.578    -158.788
  N     -316.738    -140.965    -162.724
  C     -316.957    -141.113    -161.400
  N     -316.050    -141.260    -160.412
  C     -314.801    -141.210    -160.906
  C     -314.423    -141.059    -162.229
  C     -315.459    -140.929    -163.168
  N     -315.239    -140.802    -164.518
  N     -313.048    -141.098    -162.349
  C     -312.603    -141.261    -161.120
  N     -313.624    -141.329    -160.214
  O     -307.995    -141.749    -160.749
  O     -307.227    -141.735    -158.305
  H     -315.400    -142.981    -157.541
  H     -307.086    -141.410    -160.849
  H     -318.000    -141.128    -161.095
  H     -311.561    -141.341    -160.838
  H     -314.328    -140.973    -158.310
  H     -314.122    -143.659    -159.259
  H     -311.750    -143.656    -159.166
  H     -312.006    -142.159    -156.499
  H     -309.847    -141.212    -157.087
  H     -309.703    -142.989    -157.112
  H     -316.030    -140.783    -165.141
  H     -314.294    -140.891    -164.870
  P     -310.826    -145.547    -157.555
  C     -311.552    -147.990    -157.005
  O     -310.971    -146.779    -156.542
  O     -309.641    -144.674    -156.927
  O     -310.538    -145.938    -158.965
  H     -308.818    -144.819    -157.431
  H     -311.573    -148.703    -156.208
  H     -310.971    -148.378    -157.815
  H     -312.550    -147.801    -157.341

 6  7  8  9  10  11  12  13  14  15  25  28  32  33  34  35 0
 6-311+G(2d,p)
 ****
 36  37  40 0
 6-311+G(2d,p)
 ****
 1  2  3  4  5  16  17  18  19  20  21  22  23  24 0
 3-21G
 ****
 26  27  29  30  31  38  39 41  42  43  44  45  46  47  48 0
 3-21G
 ****


