%nproc=1
%NoSave
%Mem=1900MB
#P OB98/GEN NMR

erre ene a

0 1
  C      256.160     716.677     176.130
  O      254.829     716.219     176.174
  P      254.369     715.030     175.203
  C      254.014     714.681     172.675
  O      254.505     715.552     173.689
  C      253.129     715.445     171.687
  O      253.778     716.682     171.285
  C      252.865     714.689     170.384
  O      251.887     713.683     170.577
  C      252.429     715.819     169.476
  O      251.046     716.151     169.689
  C      253.327     716.996     169.961
  N      254.906     719.163     165.600
  C      253.658     718.975     166.131
  N      253.335     718.347     167.272
  C      254.423     717.854     167.894
  C      255.745     717.944     167.460
  C      255.972     718.651     166.274
  N      257.229     718.906     165.765
  N      256.582     717.305     168.358
  C      255.772     716.828     169.308
  N      254.473     717.207     169.093
  O      253.051     714.376     175.544
  O      255.563     713.970     175.315
  H      250.508     715.452     169.257
  H      255.217     713.115     175.657
  H      252.839     719.385     165.554
  H      256.094     716.238     170.155
  H      252.768     717.934     170.019
  H      252.537     715.586     168.411
  H      253.796     714.262     170.007
  H      252.191     715.693     172.186
  H      253.425     713.881     173.145
  H      257.274     719.546     164.979
  H      258.033     718.805     166.389
  H      254.876     714.226     172.159
  P      251.989     712.305     169.764
  C      252.147     711.626     167.285
  O      251.964     712.698     168.197
  O      251.036     711.230     170.178
  O      253.517     711.840     169.990
  H      253.557     710.867     170.009
  H      253.203     711.354     167.242
  H      251.809     711.936     166.297
  H      251.556     710.748     167.595
  H      256.289     717.467     176.840
  H      256.380     717.040     175.148
  H      256.822     715.871     176.369

 3  4  5  6  7  8  9  10  11  12  22  25  29  30  31  32 0
 6-311+G(2d,p)
 ****
 33  36  37 0
 6-311+G(2d,p)
 ****
 1  2  13  14  15  16  17  18  19  20  21  23  24  26 0
 3-21G
 ****
 27  28  34  35  38  39  40  41  42  43  44  45  46  47  48 0
 3-21G
 ****


