%nproc=1
%NoSave
%Mem=1900MB
#P OB98/GEN NMR

erre ene a

0 1
  C     -330.829      34.976     106.759
  O     -331.070      36.064     107.650
  P     -330.873      37.547     107.078
  C     -333.116      38.729     106.389
  O     -332.202      38.379     107.413
  C     -334.318      39.507     106.957
  O     -334.837      38.777     108.101
  C     -334.000      40.906     107.479
  O     -335.220      41.646     107.573
  C     -333.487      40.606     108.871
  O     -333.513      41.762     109.703
  C     -334.398      39.440     109.319
  N     -333.724      38.468     110.207
  C     -334.500      37.774     111.139
  O     -335.716      37.923     111.266
  N     -333.828      36.915     111.966
  C     -332.489      36.655     111.926
  O     -331.922      35.936     112.747
  C     -331.745      37.299     110.841
  C     -332.381      38.170     110.054
  O     -330.925      37.347     105.494
  O     -329.609      38.202     107.524
  H     -332.998      42.457     109.236
  H     -330.028      37.423     105.112
  H     -334.365      36.457     112.688
  H     -330.690      37.065     110.737
  H     -331.838      38.674     109.256
  H     -335.282      39.809     109.850
  H     -332.446      40.271     108.816
  H     -333.269      41.459     106.884
  H     -335.112      39.546     106.198
  H     -333.456      37.828     105.871
  H     -332.602      39.346     105.639
  P     -335.132      43.248     107.520
  C     -333.555      43.833     105.573
  O     -334.898      43.637     105.977
  O     -334.201      43.888     108.495
  O     -336.653      43.695     107.764
  H     -336.677      44.633     108.047
  H     -333.466      43.576     104.513
  H     -332.868      43.213     106.148
  H     -333.293      44.887     105.703
  H     -330.998      34.052     107.271
  H     -329.816      35.014     106.415
  H     -331.492      35.046     105.922

 3  4  5  6  7  8  9  10  11  12  13  23  28  29  30  31  32 0
 6-311+G(2d,p)
 ****
 33  34 0
 6-311+G(2d,p)
 ****
 1  2  14  15  16  17  18  19  20  21  22  24  25  26  27 0
 3-21G
 ****
 35  36  37  38  39  40  41  42  43  44  45 0
 3-21G
 ****


