%nproc=1
%NoSave
%Mem=1900MB
#P OB98/GEN NMR

erre ene a

0 1
  C     -413.877    -367.042     -54.360
  O     -414.248    -368.337     -53.929
  H     -413.218    -366.583     -53.621
  H     -413.338    -367.126     -55.308
  H     -414.761    -366.417     -54.513
  P     -415.300    -368.437     -52.726
  C     -417.404    -369.270     -53.999
  O     -416.750    -368.179     -53.369
  C     -417.611    -368.989     -55.487
  O     -416.302    -368.866     -56.123
  C     -418.392    -370.081     -56.239
  O     -419.251    -369.449     -57.190
  C     -417.309    -370.844     -56.981
  O     -417.798    -371.497     -58.146
  C     -416.309    -369.721     -57.277
  N     -413.752    -372.972     -60.235
  C     -414.977    -372.417     -60.354
  N     -415.561    -371.514     -59.540
  C     -414.727    -371.136     -58.561
  C     -413.445    -371.608     -58.314
  C     -412.967    -372.586     -59.204
  N     -411.737    -373.211     -59.053
  N     -412.928    -371.018     -57.177
  C     -413.882    -370.231     -56.734
  N     -414.993    -370.265     -57.534
  O     -415.012    -367.091     -51.901
  O     -415.184    -369.652     -51.867
  H     -417.912    -370.831     -58.854
  H     -414.301    -367.254     -51.252
  H     -415.571    -372.749     -61.203
  H     -413.840    -369.637     -55.827
  H     -416.598    -369.120     -58.147
  H     -416.871    -371.595     -56.317
  H     -418.985    -370.732     -55.581
  H     -418.107    -368.020     -55.592
  H     -418.383    -369.422     -53.528
  H     -411.531    -373.977     -59.674
  H     -411.195    -373.011     -58.223
  H     -416.804    -370.180     -53.866
  P     -420.715    -369.015     -56.694
  C     -420.606    -366.450     -57.143
  O     -420.653    -367.498     -56.181
  O     -420.905    -369.853     -55.334
  O     -421.805    -369.308     -57.675
  H     -421.839    -370.088     -55.214
  H     -420.568    -365.506     -56.641
  H     -421.480    -366.491     -57.759
  H     -419.734    -366.565     -57.753

 6  7  8  9  10  11  12  13  14  15  25  28  32  33  34  35 0
 6-311+G(2d,p)
 ****
 36  39  40 0
 6-311+G(2d,p)
 ****
 1  2  3  4  5  16  17  18  19  20  21  22  23  24 0
 3-21G
 ****
 26  27  29  30  31  37  38  41  42  43  44  45  46  47 0
 3-21G
 ****
 48 0
 3-21G
 ****


