%nproc=1
%NoSave
%Mem=1900MB
#P OB98/GEN NMR

erre ene a

0 1
  C      164.529      -2.859      69.117
  O      164.094      -3.448      67.904
  P      164.004      -5.043      67.754
  C      165.672      -7.001      67.672
  O      165.509      -5.596      67.840
  C      167.083      -7.432      68.063
  O      167.277      -7.177      69.475
  C      167.355      -8.913      67.826
  O      168.715      -9.074      67.405
  C      167.202      -9.549      69.195
  O      167.968     -10.763      69.296
  C      167.665      -8.410      70.110
  N      167.668     -10.748      74.684
  C      168.440     -10.916      73.589
  N      168.368     -10.279      72.398
  C      167.405      -9.342      72.425
  C      166.540      -9.051      73.469
  C      166.697      -9.807      74.646
  N      165.913      -9.622      75.766
  N      165.663      -8.045      73.112
  C      166.008      -7.722      71.886
  N      167.062      -8.470      71.428
  O      163.235      -5.524      66.574
  O      163.357      -5.538      69.128
  H      168.900     -10.502      69.440
  H      162.740      -6.279      68.967
  H      169.222     -11.668      73.677
  H      165.524      -6.968      71.281
  H      168.757      -8.404      70.227
  H      166.149      -9.801      69.369
  H      166.681      -9.355      67.086
  H      167.804      -6.809      67.514
  H      165.498      -7.243      66.619
  H      166.176     -10.123      76.601
  H      165.311      -8.810      75.799
  H      164.925      -7.529      68.279
  P      169.086     -10.504      66.759
  C      169.564     -12.807      67.875
  O      168.942     -11.545      67.968
  O      170.392     -10.468      66.038
  O      167.811     -10.763      65.822
  H      167.023     -10.275      66.145
  H      169.321     -13.386      68.771
  H      170.651     -12.691      67.824
  H      169.207     -13.348      66.996
  H      164.520      -1.794      69.019
  H      165.523      -3.189      69.337
  H      163.872      -3.150      69.910

 3  4  5  6  7  8  9  10  11  12  22  25  29  30  31  32 0
 6-311+G(2d,p)
 ****
 33  36  37 0
 6-311+G(2d,p)
 ****
 1  2  13  14  15  16  17  18  19  20  21  23  24  26 0
 3-21G
 ****
 27  28  34  35  38  39  40  41  42  43  44  45  46  47  48 0
 3-21G
 ****


