%nproc=1
%NoSave
%Mem=1900MB
#P OB98/GEN NMR

erre ene a

0 1
  C     -296.546     153.861     630.205
  O     -296.165     152.498     630.263
  H     -297.557     153.927     629.794
  H     -295.874     154.425     629.552
  H     -296.542     154.298     631.206
  P     -294.660     152.149     630.684
  C     -293.520     150.073     631.727
  O     -294.743     150.749     631.453
  C     -293.707     149.086     632.873
  O     -293.750     149.784     634.132
  C     -295.013     148.308     632.781
  O     -294.932     147.293     631.800
  C     -295.157     147.825     634.214
  O     -294.336     146.678     634.459
  C     -294.642     149.050     635.005
  N     -295.721     149.907     635.488
  C     -296.681     149.288     636.294
  O     -296.589     148.093     636.567
  N     -297.735     150.041     636.746
  C     -297.815     151.299     636.442
  N     -298.883     151.987     636.929
  C     -296.815     151.993     635.608
  C     -295.808     151.242     635.166
  O     -293.899     153.210     631.416
  O     -293.963     151.758     629.296
  H     -294.441     146.471     635.409
  H     -293.579     152.548     628.872
  H     -296.920     153.043     635.385
  H     -295.030     151.673     634.545
  H     -294.048     148.731     635.870
  H     -296.185     147.557     634.444
  H     -295.844     148.987     632.570
  H     -292.846     148.409     632.890
  H     -299.548     151.466     637.487
  H     -292.783     150.837     632.001
  H     -299.002     152.981     636.831
  H     -293.156     149.554     630.832
  P     -296.145     146.265     631.587
  C     -296.844     144.705     629.657
  O     -296.080     145.849     630.037
  O     -297.475     146.740     632.069
  O     -295.633     144.945     632.332
  H     -295.680     145.044     633.316
  H     -296.723     144.527     628.609
  H     -297.878     144.879     629.872
  H     -296.505     143.851     630.205

 6  7  8  9  10  11  12  13  14  15  16  26  30  31  32  33  35 0
 6-311+G(2d,p)
 ****
 37  38 0
 6-311+G(2d,p)
 ****
 1  2  3  4  5  17  18  19  20  21  22  23  24  25 0
 3-21G
 ****
 27  28  29  34  36  39  40  41  42  43  44  45  46 0
 3-21G
 ****


