%nproc=1
%NoSave
%Mem=1900MB
#P OB98/GEN NMR

erre ene a

0 1
  C     -229.189     -85.941     102.776
  O     -228.719     -86.363     101.512
  H     -230.075     -86.526     103.035
  H     -229.462     -84.882     102.745
  H     -228.421     -86.105     103.536
  P     -227.482     -85.542     100.898
  C     -228.791     -84.049      99.207
  O     -228.139     -84.141     100.465
  C     -230.204     -84.613      99.308
  O     -230.994     -83.842     100.242
  C     -230.990     -84.592      98.001
  O     -230.622     -85.626      97.105
  C     -232.396     -84.784      98.540
  O     -232.580     -86.157      98.932
  C     -232.370     -83.851      99.769
  N     -232.818     -82.490      99.465
  C     -233.835     -81.968     100.273
  O     -234.316     -82.635     101.187
  N     -234.312     -80.708     100.004
  C     -233.806     -80.018      99.029
  N     -234.320     -78.778      98.811
  C     -232.727     -80.522      98.161
  C     -232.286     -81.749      98.432
  O     -227.225     -86.259      99.490
  O     -226.275     -85.430     101.766
  H     -233.471     -86.218      99.319
  H     -226.574     -85.736      98.960
  H     -232.346     -79.915      97.353
  H     -231.492     -82.186      97.836
  H     -232.991     -84.250     100.579
  H     -233.174     -84.556      97.811
  H     -230.930     -83.613      97.512
  H     -230.128     -85.632      99.710
  H     -235.100     -78.484      99.384
  H     -228.209     -84.621      98.476
  H     -234.100     -78.228      97.990
  H     -228.840     -83.004      98.885
  P     -230.938     -85.398      95.548
  C     -232.744     -86.922      94.458
  O     -232.465     -85.824      95.316
  O     -230.115     -86.568      94.835
  O     -230.564     -84.047      95.021
  H     -229.775     -86.276      93.966
  H     -233.802     -87.077      94.409
  H     -232.272     -87.803      94.841
  H     -232.369     -86.713      93.478

 6  7  8  9  10  11  12  13  14  15  16  26  30  31  32  33  35 0
 6-311+G(2d,p)
 ****
 37  38 0
 6-311+G(2d,p)
 ****
 1  2  3  4  5  17  18  19  20  21  22  23  24  25 0
 3-21G
 ****
 27  28  29  34  36  39  40  41  42  43  44  45  46 0
 3-21G
 ****


