%nproc=1
%NoSave
%Mem=1900MB
#P OB98/GEN NMR

erre ene a

0 1
  C      459.200     275.845    -491.786
  O      459.274     274.697    -490.964
  H      458.720     275.565    -492.728
  H      460.202     276.215    -492.001
  H      458.599     276.623    -491.304
  P      459.849     274.844    -489.471
  C      457.628     274.164    -488.367
  O      458.998     273.840    -488.548
  C      456.744     272.934    -488.564
  O      456.658     272.640    -489.983
  C      457.280     271.679    -487.864
  O      456.175     270.933    -487.350
  C      457.949     270.900    -488.985
  O      457.988     269.493    -488.726
  C      457.084     271.274    -490.183
  N      456.718     269.709    -494.976
  C      455.746     269.783    -493.978
  N      454.504     269.361    -494.309
  N      455.986     270.239    -492.779
  C      457.267     270.643    -492.593
  C      458.308     270.621    -493.493
  C      458.044     270.099    -494.821
  O      458.854     269.981    -495.739
  N      459.467     271.082    -492.931
  C      459.122     271.400    -491.686
  N      457.805     271.131    -491.439
  O      459.927     276.249    -488.952
  O      461.288     274.150    -489.535
  H      457.093     269.237    -488.402
  H      461.991     274.825    -489.614
  H      456.480     269.346    -495.886
  H      459.794     271.801    -490.937
  H      456.177     270.644    -490.260
  H      458.977     271.254    -489.119
  H      454.257     269.008    -495.218
  H      457.983     271.909    -487.051
  H      453.782     269.425    -493.603
  H      455.739     273.169    -488.216
  H      457.355     274.935    -489.103
  H      457.476     274.578    -487.357
  P      456.456     269.787    -486.262
  C      455.200     270.988    -484.359
  O      455.276     269.827    -485.176
  O      457.837     269.751    -485.689
  O      456.126     268.439    -487.076
  H      456.682     267.718    -486.729
  H      454.378     270.894    -483.681
  H      455.056     271.850    -484.977
  H      456.109     271.094    -483.805

 6  7  8  9  10  11  12  13  14  15  26  29  33  34 0
 6-311+G(2d,p)
 ****
 36  38  39  40  41 0
 6-311+G(2d,p)
 ****
 1  2  3  4  5  16  17  18  19  20  21  22  23  24  25 0
 3-21G
 ****
 27  28  30  31  32  35  37  42  43  44  45  46  47 0
 3-21G
 ****
 48  49 0
 3-21G
 ****


