%nproc=1
%NoSave
%Mem=1900MB
#P OB98/GEN NMR

erre ene a

0 1
  C     -440.870     182.775     927.029
  O     -441.457     181.480     927.114
  P     -441.142     180.596     928.412
  C     -443.679     180.863     929.009
  O     -442.552     180.008     928.900
  C     -444.888     180.100     929.573
  O     -445.517     179.324     928.523
  C     -444.513     179.089     930.649
  O     -444.224     179.737     931.879
  C     -445.761     178.231     930.663
  O     -446.814     178.851     931.420
  C     -446.143     178.196     929.175
  N     -445.789     176.941     928.502
  C     -446.641     175.854     928.753
  O     -447.615     175.935     929.494
  N     -446.314     174.686     928.129
  C     -445.232     174.480     927.317
  O     -445.003     173.419     926.769
  C     -444.347     175.644     927.134
  C     -444.661     176.806     927.723
  O     -440.799     181.739     929.479
  O     -440.060     179.594     928.191
  H     -441.334     182.557     929.355
  H     -446.737     179.805     931.268
  H     -446.932     173.901     928.277
  H     -443.462     175.516     926.523
  H     -444.006     177.678     927.615
  H     -447.224     178.348     929.060
  H     -445.581     177.234     931.105
  H     -443.653     178.493     930.344
  H     -445.602     180.825     929.956
  H     -443.948     181.272     928.026
  H     -443.417     181.719     929.646
  P     -442.679     179.702     932.362
  C     -442.922     182.188     933.194
  O     -442.551     180.854     933.491
  O     -441.945     180.324     931.089
  O     -442.213     178.356     932.773
  H     -442.389     181.102     930.721
  H     -443.080     182.715     934.132
  H     -443.848     182.211     932.616
  H     -442.123     182.687     932.636
  H     -441.168     183.243     926.114
  H     -439.804     182.686     927.053
  H     -441.197     183.370     927.856

 3  4  5  6  7  8  9  10  11  12  13  24  28  29  30  31  32 0
 6-311+G(2d,p)
 ****
 33  34 0
 6-311+G(2d,p)
 ****
 1  2  14  15  16  17  18  19  20  21  22  23  25  26  27 0
 3-21G
 ****
 35  36  37  38  39  40  41  42  43  44  45 0
 3-21G
 ****


