%nproc=1
%NoSave
%Mem=1900MB
#P OB98/GEN NMR

erre ene a

0 1
  C      169.330     -28.685     115.791
  O      169.473     -29.559     114.681
  P      170.633     -30.670     114.647
  C      173.142     -30.642     114.091
  O      171.928     -29.903     114.093
  C      173.836     -30.510     112.738
  O      173.064     -31.243     111.757
  C      173.951     -29.090     112.181
  O      175.064     -28.353     112.663
  C      174.146     -29.386     110.698
  O      175.513     -29.772     110.454
  C      173.210     -30.577     110.476
  N      170.527     -29.204     106.339
  C      171.819     -29.579     106.498
  N      172.465     -29.911     107.637
  C      171.622     -29.873     108.684
  C      170.283     -29.516     108.677
  C      169.731     -29.169     107.430
  N      168.409     -28.810     107.269
  N      169.754     -29.577     109.953
  C      170.756     -29.977     110.708
  N      171.902     -30.177     109.989
  O      170.265     -31.924     113.935
  O      170.991     -30.913     116.186
  H      175.555     -30.091     109.531
  H      171.489     -31.748     116.287
  H      172.417     -29.611     105.589
  H      170.700     -30.130     111.777
  H      173.621     -31.311     109.772
  H      173.941     -28.519     110.062
  H      173.015     -28.531     112.315
  H      174.826     -30.982     112.808
  H      172.906     -31.696     114.273
  H      168.071     -28.705     106.325
  H      167.781     -28.940     108.048
  H      173.789     -30.289     114.902
  P      174.814     -26.808     113.040
  C      173.886     -24.769     111.688
  O      174.354     -26.101     111.675
  O      175.944     -26.155     113.755
  O      173.461     -26.871     113.899
  H      172.668     -27.130     113.405
  H      173.780     -24.428     110.652
  H      174.592     -24.113     112.199
  H      172.909     -24.718     112.175
  H      168.505     -28.025     115.621
  H      170.226     -28.113     115.912
  H      169.151     -29.259     116.676

 3  4  5  6  7  8  9  10  11  12  22  25  29  30  31  32 0
 6-311+G(2d,p)
 ****
 33  36  37 0
 6-311+G(2d,p)
 ****
 1  2  13  14  15  16  17  18  19  20  21  23  24  26 0
 3-21G
 ****
 27  28  34  35  38  39  40  41  42  43  44  45  46  47  48 0
 3-21G
 ****


