%nproc=1
%NoSave
%Mem=1900MB
#P OB98/GEN NMR

erre ene a

0 1
  C     -891.650    -931.411    -811.937
  O     -892.050    -932.482    -811.089
  H     -891.620    -930.497    -811.364
  H     -892.370    -931.305    -812.765
  H     -890.660    -931.596    -812.345
  P     -892.180    -933.928    -811.760
  C     -891.350    -935.065    -809.594
  O     -892.440    -934.915    -810.516
  C     -891.890    -935.239    -808.172
  O     -892.640    -934.068    -807.772
  C     -892.850    -936.459    -808.032
  O     -892.620    -937.106    -806.786
  C     -894.230    -935.832    -808.046
  O     -895.200    -936.642    -807.384
  C     -893.950    -934.474    -807.367
  N     -898.950    -933.434    -807.521
  C     -898.250    -934.434    -806.955
  N     -896.920    -934.620    -806.946
  C     -896.290    -933.625    -807.573
  C     -896.870    -932.516    -808.199
  C     -898.260    -932.457    -808.140
  N     -899.000    -931.449    -808.736
  N     -895.890    -931.721    -808.757
  C     -894.740    -932.315    -808.467
  N     -894.930    -933.477    -807.761
  O     -891.060    -934.322    -812.669
  O     -893.620    -933.843    -812.426
  H     -895.980    -936.081    -807.180
  H     -894.270    -933.429    -811.847
  H     -898.840    -935.219    -806.438
  H     -893.740    -931.965    -808.744
  H     -893.970    -934.531    -806.282
  H     -894.560    -935.682    -809.080
  H     -892.730    -937.186    -808.858
  H     -891.040    -935.338    -807.478
  H     -890.720    -934.167    -809.620
  H     -900.000    -931.459    -808.664
  H     -898.500    -930.687    -809.206
  H     -890.760    -935.923    -809.892
  P     -892.060    -938.598    -806.784
  C     -891.900    -938.225    -804.214
  O     -892.050    -939.159    -805.278
  O     -890.780    -938.835    -807.537
  O     -893.280    -939.414    -807.449
  H     -892.890    -940.124    -808.022
  H     -891.912    -938.745    -803.279
  H     -892.705    -937.521    -804.241
  H     -890.970    -937.707    -804.322

 6  7  8  9  10  11  12  13  14  15  25  28  32  33  34  35 0
 6-311+G(2d,p)
 ****
 36  39  40 0
 6-311+G(2d,p)
 ****
 1  2  3  4  5  16  17  18  19  20  21  22  23  24 0
 3-21G
 ****
 26  27  29  30  31  37  38  41  42  43  44  45  46  47 0
 3-21G
 ****
 48 0
 3-21G
 ****


