%nproc=1
%NoSave
%Mem=1900MB
#P OB98/GEN NMR

erre ene a

0 1
  C     1181.147    -334.144    -831.727
  O     1182.256    -333.912    -832.583
  P     1181.939    -333.289    -834.033
  C     1180.467    -335.283    -834.860
  O     1181.678    -334.565    -834.994
  C     1179.973    -335.803    -836.182
  O     1179.731    -334.721    -837.087
  C     1180.955    -336.727    -836.901
  O     1180.886    -338.070    -836.431
  C     1180.430    -336.644    -838.334
  O     1179.290    -337.516    -838.476
  C     1179.995    -335.175    -838.447
  N     1181.353    -332.685    -842.682
  C     1180.311    -333.506    -842.435
  N     1180.034    -334.123    -841.264
  C     1180.964    -333.896    -840.335
  C     1182.110    -333.111    -840.491
  C     1182.286    -332.465    -841.742
  N     1183.333    -331.617    -842.005
  N     1182.839    -333.101    -839.308
  C     1182.173    -333.832    -838.500
  N     1181.023    -334.329    -839.040
  O     1183.375    -332.750    -834.529
  O     1180.900    -332.220    -834.065
  H     1178.781    -337.477    -837.631
  H     1183.247    -332.059    -835.213
  H     1179.620    -333.668    -843.232
  H     1182.448    -334.042    -837.455
  H     1179.080    -335.050    -839.026
  H     1181.170    -336.976    -839.065
  H     1181.975    -336.327    -836.885
  H     1179.006    -336.332    -836.023
  H     1179.704    -334.621    -834.422
  H     1183.297    -331.063    -842.851
  H     1183.893    -331.295    -841.230
  H     1180.619    -336.123    -834.144
  P     1182.275    -338.680    -835.844
  C     1183.114    -338.950    -838.311
  O     1182.869    -339.557    -837.050
  O     1181.756    -339.787    -834.796
  O     1183.190    -337.668    -835.224
  H     1182.448    -339.927    -834.107
  H     1183.801    -339.535    -838.895
  H     1183.587    -337.946    -838.150
  H     1182.162    -338.803    -838.844
  H     1181.491    -334.556    -830.802
  H     1180.473    -334.831    -832.195
  H     1180.642    -333.220    -831.540

 3  4  5  6  7  8  9  10  11  12  22  25  29  30  31  32 0
 6-311+G(2d,p)
 ****
 33  36  37 0
 6-311+G(2d,p)
 ****
 1  2  13  14  15  16  17  18  19  20  21  23  24  26 0
 3-21G
 ****
 27  28  34  35  38  39  40  41  42  43  44  45  46  47  48 0
 3-21G
 ****


