%nproc=1
%NoSave
%Mem=1900MB
#P OB98/GEN NMR

erre ene a

0 1
  C      -28.314      -6.305     -34.409
  O      -27.480      -7.312     -34.956
  P      -25.889      -7.174     -34.908
  C      -23.934      -8.621     -33.917
  O      -25.285      -8.526     -34.314
  C      -23.635     -10.070     -33.512
  O      -24.435     -10.441     -32.370
  C      -23.947     -11.045     -34.644
  O      -22.781     -11.320     -35.403
  C      -24.485     -12.253     -33.902
  O      -23.403     -13.055     -33.394
  C      -25.252     -11.586     -32.735
  N      -26.623     -11.105     -32.989
  C      -27.558     -11.113     -31.958
  O      -27.307     -11.475     -30.813
  N      -28.824     -10.707     -32.300
  C      -29.214     -10.263     -33.530
  O      -30.380     -10.137     -33.883
  C      -28.131     -10.021     -34.487
  C      -26.911     -10.467     -34.188
  O      -25.654      -6.117     -33.731
  O      -25.241      -6.747     -36.183
  H      -23.794     -13.875     -33.043
  H      -25.502      -5.224     -34.095
  H      -29.540     -10.843     -31.593
  H      -28.372      -9.539     -35.425
  H      -26.099     -10.334     -34.899
  H      -25.299     -12.251     -31.866
  H      -25.058     -12.900     -34.564
  H      -24.745     -10.643     -35.283
  H      -22.580     -10.146     -33.224
  H      -23.740      -7.942     -33.080
  H      -23.279      -8.315     -34.740
  P      -22.804     -12.496     -36.488
  C      -21.761     -12.809     -38.808
  O      -22.078     -11.889     -37.783
  O      -24.137     -13.121     -36.735
  O      -21.750     -13.553     -35.906
  H      -22.223     -14.262     -35.424
  H      -21.442     -12.253     -39.692
  H      -22.634     -13.416     -39.064
  H      -20.941     -13.455     -38.483
  H      -29.339      -6.581     -34.539
  H      -28.128      -5.378     -34.909
  H      -28.104      -6.196     -33.366

 3  4  5  6  7  8  9  10  11  12  13  23  28  29  30  31  32 0
 6-311+G(2d,p)
 ****
 33  34 0
 6-311+G(2d,p)
 ****
 1  2  14  15  16  17  18  19  20  21  22  24  25  26  27 0
 3-21G
 ****
 35  36  37  38  39  40  41  42  43  44  45 0
 3-21G
 ****


