%nproc=1
%NoSave
%Mem=1900MB
#P OB98/GEN NMR

erre ene a

0 1
  C     -110.047    -233.637    -394.027
  O     -111.021    -234.649    -394.274
  P     -112.289    -234.767    -393.309
  C     -111.998    -237.308    -392.989
  O     -112.872    -236.257    -393.391
  C     -111.978    -238.433    -394.033
  O     -113.322    -238.945    -394.256
  C     -111.446    -237.961    -395.398
  O     -110.745    -239.025    -396.057
  C     -112.719    -237.691    -396.183
  O     -112.482    -237.707    -397.589
  C     -113.617    -238.818    -395.667
  N     -117.849    -240.360    -398.103
  C     -116.603    -240.887    -398.045
  N     -115.534    -240.432    -397.357
  C     -115.849    -239.321    -396.666
  C     -117.076    -238.678    -396.616
  C     -118.111    -239.237    -397.391
  N     -119.368    -238.691    -397.464
  N     -117.020    -237.560    -395.801
  C     -115.761    -237.514    -395.398
  N     -115.031    -238.571    -395.863
  O     -113.312    -233.684    -393.446
  O     -111.625    -234.737    -391.846
  H     -113.340    -237.606    -398.036
  H     -112.163    -234.176    -391.254
  H     -116.449    -241.783    -398.636
  H     -115.335    -236.735    -394.787
  H     -113.377    -239.780    -396.140
  H     -113.119    -236.711    -395.911
  H     -110.796    -237.080    -395.350
  H     -111.380    -239.264    -393.654
  H     -112.319    -237.702    -392.022
  H     -120.012    -239.094    -398.140
  H     -119.530    -237.777    -397.064
  H     -110.998    -236.893    -392.833
  P     -109.153    -239.083    -395.803
  C     -108.531    -240.306    -398.031
  O     -108.626    -240.357    -396.628
  O     -108.780    -239.035    -394.356
  O     -108.637    -237.821    -396.643
  H     -108.961    -237.781    -397.557
  H     -108.036    -241.210    -398.386
  H     -107.949    -239.440    -398.353
  H     -109.533    -240.261    -398.474
  H     -109.272    -233.701    -394.762
  H     -109.627    -233.777    -393.053
  H     -110.511    -232.674    -394.080

 3  4  5  6  7  8  9  10  11  12  22  25  29  30  31  32 0
 6-311+G(2d,p)
 ****
 33  36  37 0
 6-311+G(2d,p)
 ****
 1  2  13  14  15  16  17  18  19  20  21  23  24  26 0
 3-21G
 ****
 27  28  34  35  38  39  40  41  42  43  44  45  46  47  48 0
 3-21G
 ****


