%nproc=1
%NoSave
%Mem=1900MB
#P OB98/GEN NMR

erre ene a

0 1
  C     -476.261    -795.818     948.612
  O     -475.530    -794.674     948.193
  P     -476.387    -793.367     947.809
  C     -475.885    -791.700     949.764
  O     -475.608    -792.110     948.434
  C     -474.605    -791.198     950.428
  O     -473.719    -792.308     950.709
  C     -473.802    -790.214     949.580
  O     -474.329    -788.914     949.699
  C     -472.403    -790.364     950.185
  O     -472.274    -789.591     951.390
  C     -472.356    -791.871     950.489
  N     -467.992    -793.798     948.755
  C     -468.238    -792.884     949.771
  N     -467.150    -792.465     950.457
  N     -469.415    -792.437     950.103
  C     -470.397    -792.934     949.315
  C     -470.307    -793.827     948.268
  C     -468.996    -794.352     947.959
  O     -468.753    -795.225     947.141
  N     -471.526    -794.069     947.708
  C     -472.363    -793.369     948.433
  N     -471.743    -792.667     949.422
  O     -477.695    -793.505     948.724
  O     -476.725    -793.230     946.357
  H     -471.448    -789.845     951.845
  H     -478.441    -793.877     948.218
  H     -467.063    -794.122     948.567
  H     -473.441    -793.345     948.279
  H     -471.785    -792.086     951.406
  H     -471.619    -790.010     949.506
  H     -466.194    -792.754     950.253
  H     -473.784    -790.536     948.529
  H     -467.288    -791.789     951.201
  H     -474.873    -790.745     951.389
  H     -476.277    -792.550     950.334
  H     -476.638    -790.903     949.736
  P     -473.785    -787.795     948.694
  C     -475.869    -788.290     947.227
  O     -475.003    -787.317     947.778
  O     -472.854    -788.636     947.678
  O     -473.006    -786.704     949.344
  H     -472.069    -788.093     947.431
  H     -476.857    -787.857     947.114
  H     -475.935    -789.186     947.849
  H     -475.500    -788.587     946.235
  H     -475.581    -796.613     948.837
  H     -476.923    -796.125     947.829
  H     -476.830    -795.577     949.486

 3  4  5  6  7  8  9  10  11  12  23  26  30  31 0
 6-311+G(2d,p)
 ****
 33  35  36  37  38 0
 6-311+G(2d,p)
 ****
 1  2  13  14  15  16  17  18  19  20  21  22  24  25 0
 3-21G
 ****
 27  28  29  32  34  39  40  41  42  43  44  45  46  47  48  49 0
 3-21G
 ****


