%nproc=1
%NoSave
%Mem=1900MB
#P OB98/GEN NMR

erre ene a

0 1
  C       33.036     112.679     199.326
  O       33.021     111.529     200.167
  P       33.394     111.532     201.719
  C       33.797     108.956     202.008
  O       33.016     110.101     202.326
  C       33.116     108.025     200.991
  O       33.356     108.518     199.647
  C       33.727     106.624     201.053
  O       33.282     105.696     202.025
  C       33.655     106.108     199.624
  O       32.482     105.329     199.380
  C       33.626     107.390     198.788
  N       36.078     107.029     194.312
  C       34.806     106.608     194.647
  N       34.111     105.963     193.685
  N       34.271     106.788     195.824
  C       35.104     107.366     196.718
  C       36.391     107.808     196.511
  C       36.955     107.658     195.186
  O       38.071     108.024     194.833
  N       36.936     108.325     197.660
  C       35.991     108.172     198.564
  N       34.854     107.600     198.039
  O       32.948     112.730     202.486
  O       35.007     111.528     201.712
  H       32.482     105.070     198.442
  H       35.291     112.034     202.502
  H       36.431     106.886     193.382
  H       36.074     108.462     199.605
  H       32.815     107.363     198.049
  H       34.511     105.457     199.406
  H       34.509     105.688     192.801
  H       34.799     106.752     201.263
  H       33.272     105.465     193.989
  H       32.032     108.030     201.122
  H       33.978     108.428     202.949
  H       34.772     109.264     201.631
  P       34.131     105.134     203.259
  C       33.263     102.727     203.099
  O       33.328     103.900     203.889
  O       33.975     106.263     204.382
  O       35.571     104.867     202.966
  H       34.652     106.151     205.073
  H       32.457     102.091     203.474
  H       34.208     102.183     203.170
  H       33.062     102.974     202.050
  H       32.745     112.400     198.335
  H       34.022     113.093     199.305
  H       32.351     113.408     199.706

 3  4  5  6  7  8  9  10  11  12  23  26  30  31 0
 6-311+G(2d,p)
 ****
 33  35  36  37  38 0
 6-311+G(2d,p)
 ****
 1  2  13  14  15  16  17  18  19  20  21  22  24  25 0
 3-21G
 ****
 27  28  29  32  34  39  40  41  42  43  44  45  46  47  48  49 0
 3-21G
 ****


