%nproc=1
%NoSave
%Mem=1900MB
#P OB98/GEN NMR

erre ene a

0 1
  C     -434.412     -72.345     -97.142
  O     -434.868     -73.609     -97.579
  H     -434.351     -72.354     -96.048
  H     -435.103     -71.556     -97.450
  H     -433.412     -72.148     -97.550
  P     -435.060     -73.792     -99.163
  C     -437.582     -73.406     -98.771
  O     -436.422     -73.004     -99.491
  C     -438.428     -72.190     -98.386
  O     -438.429     -71.260     -99.497
  C     -439.887     -72.538     -98.064
  O     -440.333     -71.728     -96.975
  C     -440.632     -72.156     -99.332
  O     -441.998     -71.845     -99.085
  C     -439.796     -70.969     -99.831
  N     -441.769     -67.948    -103.442
  C     -441.676     -67.809    -102.099
  N     -441.119     -68.664    -101.211
  C     -440.583     -69.724    -101.840
  C     -440.607     -70.006    -103.200
  C     -441.242     -69.056    -104.017
  N     -441.364     -69.201    -105.381
  N     -439.982     -71.212    -103.453
  C     -439.586     -71.647    -102.274
  N     -439.935     -70.792    -101.265
  O     -434.997     -75.195     -99.659
  O     -433.942     -72.806     -99.740
  H     -442.368     -71.403     -99.880
  H     -433.931     -71.957     -99.260
  H     -442.113     -66.904    -101.684
  H     -439.054     -72.579    -102.094
  H     -440.081     -70.022     -99.356
  H     -440.590     -72.986    -100.045
  H     -440.019     -73.594     -97.818
  H     -437.942     -71.679     -97.540
  H     -437.292     -73.956     -97.870
  H     -441.829     -68.462    -105.897
  H     -440.966     -70.007    -105.834
  H     -438.158     -74.083     -99.416
  P     -440.279     -72.339     -95.496
  C     -442.626     -73.405     -95.730
  O     -441.245     -73.618     -95.434
  O     -440.442     -71.358     -94.376
  O     -438.817     -73.013     -95.449
  H     -438.435     -72.885     -94.566
  H     -443.154     -74.332     -95.653
  H     -442.723     -73.021     -96.724
  H     -443.036     -72.702     -95.035

 6  7  8  9  10  11  12  13  14  15  25  28  32  33  34  35 0
 6-311+G(2d,p)
 ****
 36  39  40 0
 6-311+G(2d,p)
 ****
 1  2  3  4  5  16  17  18  19  20  21  22  23  24 0
 3-21G
 ****
 26  27  29  30  31  37  38  41  42  43  44  45  46  47 0
 3-21G
 ****
 48 0
 3-21G
 ****


