%nproc=1
%NoSave
%Mem=1900MB
#P OB98/GEN NMR

erre ene a

0 1
  C      123.793     285.807    -205.989
  O      124.413     284.957    -205.017
  P      124.928     283.479    -205.379
  C      123.083     282.384    -203.955
  O      124.482     282.477    -204.210
  C      122.759     281.251    -202.975
  O      122.817     279.973    -203.636
  C      123.706     281.155    -201.784
  O      123.385     282.128    -200.810
  C      123.487     279.708    -201.346
  O      122.296     279.601    -200.548
  C      123.294     278.997    -202.691
  N      126.855     275.455    -201.720
  C      125.739     275.822    -201.052
  N      124.843     276.779    -201.372
  C      125.178     277.369    -202.533
  C      126.285     277.108    -203.321
  C      127.156     276.096    -202.874
  N      128.297     275.736    -203.548
  N      126.308     277.934    -204.424
  C      125.222     278.674    -204.311
  N      124.508     278.370    -203.185
  O      126.379     283.407    -205.729
  O      124.024     283.026    -206.621
  H      121.999     278.675    -200.588
  H      124.515     282.391    -207.172
  H      125.540     275.273    -200.134
  H      124.911     279.433    -205.016
  H      122.525     278.217    -202.630
  H      124.317     279.316    -200.752
  H      124.742     281.278    -202.119
  H      121.726     281.394    -202.631
  H      122.570     282.206    -204.905
  H      128.886     275.025    -203.143
  H      128.554     276.242    -204.385
  H      122.741     283.341    -203.544
  P      124.359     283.377    -200.571
  C      125.570     282.429    -198.517
  O      124.690     283.426    -199.003
  O      123.912     284.669    -201.166
  O      125.752     282.898    -201.207
  H      126.240     283.676    -201.534
  H      125.017     281.497    -198.373
  H      125.973     282.756    -197.557
  H      126.397     282.263    -199.214
  H      123.531     286.739    -205.533
  H      122.910     285.334    -206.366
  H      124.474     285.984    -206.795

 3  4  5  6  7  8  9  10  11  12  22  25  29  30  31  32 0
 6-311+G(2d,p)
 ****
 33  36  37 0
 6-311+G(2d,p)
 ****
 1  2  13  14  15  16  17  18  19  20  21  23  24  26 0
 3-21G
 ****
 27  28  34  35  38  39  40  41  42  43  44  45  46  47  48 0
 3-21G
 ****


