%nproc=1
%NoSave
%Mem=1900MB
#P OB98/GEN NMR

erre ene a

0 1
  C      -70.563     538.369    -346.887
  O      -70.300     537.007    -347.144
  H      -70.944     538.830    -347.803
  H      -69.636     538.873    -346.599
  H      -71.307     538.491    -346.096
  P      -70.158     536.003    -345.907
  C      -72.368     534.734    -346.308
  O      -71.640     535.592    -345.440
  C      -73.318     533.816    -345.537
  O      -72.574     533.002    -344.601
  C      -74.335     534.595    -344.705
  O      -75.489     535.022    -345.403
  C      -74.695     533.583    -343.621
  O      -75.735     532.699    -344.071
  C      -73.384     532.816    -343.427
  N      -72.068     531.827    -338.590
  C      -72.924     531.125    -339.418
  N      -73.550     530.064    -338.868
  N      -73.153     531.456    -340.661
  C      -72.531     532.597    -341.045
  C      -71.670     533.382    -340.309
  C      -71.380     532.979    -338.948
  O      -70.636     533.566    -338.171
  N      -71.228     534.460    -341.036
  C      -71.876     534.367    -342.180
  N      -72.659     533.238    -342.242
  O      -69.671     536.951    -344.706
  O      -69.210     534.862    -346.111
  H      -75.468     532.331    -344.934
  H      -69.171     536.429    -344.054
  H      -71.908     531.511    -337.648
  H      -71.796     535.073    -343.001
  H      -73.561     531.738    -343.328
  H      -75.065     534.074    -342.716
  H      -73.496     529.843    -337.885
  H      -73.856     535.454    -344.224
  H      -74.374     529.694    -339.349
  H      -73.810     533.132    -346.239
  H      -71.634     534.138    -346.853
  H      -72.921     535.321    -347.045
  P      -75.943     536.558    -345.340
  C      -76.658     536.880    -347.824
  O      -75.723     537.169    -346.806
  O      -74.784     537.233    -344.466
  O      -77.291     536.789    -344.753
  H      -75.062     537.300    -343.535
  H      -76.360     537.364    -348.730
  H      -77.624     537.234    -347.532
  H      -76.699     535.822    -347.981

 6  7  8  9  10  11  12  13  14  15  26  29  33  34 0
 6-311+G(2d,p)
 ****
 36  38  39  40  41 0
 6-311+G(2d,p)
 ****
 1  2  3  4  5  16  17  18  19  20  21  22  23  24  25 0
 3-21G
 ****
 27  28  30  31  32  35  37  42  43  44  45  46  47 0
 3-21G
 ****
 48  49 0
 3-21G
 ****


