%nproc=1
%NoSave
%Mem=1900MB
#P OB98/GEN NMR

erre ene a

0 1
  C      100.636      16.274     -33.486
  O       99.232      16.067     -33.264
  P       98.724      14.630     -32.753
  C       98.021      13.784     -35.128
  O       98.819      13.588     -33.968
  C       98.032      12.522     -35.995
  O       97.608      11.373     -35.224
  C       97.087      12.570     -37.186
  O       97.605      13.362     -38.242
  C       96.971      11.092     -37.538
  O       98.080      10.667     -38.346
  C       97.024      10.430     -36.146
  N       95.714       9.977     -35.688
  C       95.428       8.627     -35.873
  O       96.189       7.848     -36.442
  N       94.210       8.207     -35.411
  C       93.244       9.000     -34.853
  O       92.164       8.567     -34.475
  C       93.575      10.431     -34.760
  C       94.771      10.845     -35.180
  O       97.140      14.860     -32.637
  O       99.286      14.170     -31.449
  H       98.876      10.728     -37.782
  H       96.773      14.268     -31.956
  H       93.993       7.227     -35.507
  H       92.828      11.095     -34.347
  H       95.030      11.899     -35.116
  H       97.704       9.570     -36.166
  H       96.058      10.867     -38.101
  H       96.104      12.941     -36.869
  H       99.063      12.346     -36.327
  H       98.424      14.619     -35.707
  H       97.001      14.032     -34.819
  P       97.042      14.863     -38.360
  C       94.991      14.077     -39.780
  O       95.467      14.704     -38.608
  O       97.645      15.300     -39.778
  O       97.446      15.731     -37.218
  H       97.699      14.554     -40.400
  H       95.666      13.285     -40.116
  H       94.885      14.824     -40.571
  H       94.011      13.640     -39.571
  H      100.800      17.277     -33.821
  H      100.985      15.588     -34.229
  H      101.169      16.112     -32.573

 3  4  5  6  7  8  9  10  11  12  13  23  28  29  30  31  32 0
 6-311+G(2d,p)
 ****
 33  34 0
 6-311+G(2d,p)
 ****
 1  2  14  15  16  17  18  19  20  21  22  24  25  26 0
 3-21G
 ****
 27  35  36  37  38  39  40  41  42  43  44  45 0
 3-21G
 ****


