%nproc=1
%NoSave
%Mem=1900MB
#P OB98/GEN NMR

erre ene a

0 1
  C      -23.224     -58.044      48.740
  O      -22.647     -58.949      47.822
  H      -23.179     -58.481      49.741
  H      -24.270     -57.856      48.485
  H      -22.666     -57.103      48.741
  P      -22.703     -58.543      46.271
  C      -24.712     -60.103      45.737
  O      -23.349     -59.784      45.489
  C      -25.054     -61.433      45.073
  O      -25.146     -61.256      43.639
  C      -24.005     -62.517      45.279
  O      -24.094     -63.131      46.554
  C      -24.354     -63.473      44.152
  O      -25.405     -64.375      44.527
  C      -24.811     -62.520      43.032
  N      -23.793     -62.378      41.994
  C      -23.859     -63.301      40.954
  O      -24.710     -64.187      40.889
  N      -22.883     -63.198      40.002
  C      -21.842     -62.317      40.015
  O      -20.969     -62.314      39.157
  C      -21.814     -61.377      41.147
  C      -22.773     -61.452      42.074
  O      -21.165     -58.573      45.830
  O      -23.341     -57.224      45.989
  H      -20.837     -57.662      45.719
  H      -25.102     -64.814      45.347
  H      -22.915     -63.856      39.238
  H      -21.000     -60.664      41.191
  H      -22.767     -60.777      42.924
  H      -25.728     -62.896      42.560
  H      -23.495     -64.078      43.874
  H      -23.001     -62.112      45.104
  H      -26.032     -61.767      45.443
  H      -25.355     -59.322      45.318
  H      -24.877     -60.149      46.818
  P      -22.740     -63.292      47.401
  C      -23.349     -65.814      47.841
  O      -22.977     -64.549      48.367
  O      -22.840     -62.016      48.361
  O      -21.519     -63.350      46.549
  H      -23.764     -61.751      48.514
  H      -23.458     -66.515      48.642
  H      -22.592     -66.157      47.167
  H      -24.278     -65.723      47.317

 6  7  8  9  10  11  12  13  14  15  16  27  31  32  33  34  35 0
 6-311+G(2d,p)
 ****
 36  37 0
 6-311+G(2d,p)
 ****
 1  2  3  4  5  17  18  19  20  21  22  23  24  25 0
 3-21G
 ****
 26  28  29  30  38  39  40  41  42  43  44  45 0
 3-21G
 ****


