%nproc=1
%NoSave
%Mem=1900MB
#P OB98/GEN NMR

erre ene a

0 1
  C       -2.082      89.531    -399.005
  O       -2.192      88.580    -400.060
  P       -1.859      87.046    -399.716
  C        0.250      87.237    -401.224
  O       -0.275      86.889    -399.947
  C        1.054      86.072    -401.804
  O        2.016      85.602    -400.844
  C        0.222      84.856    -402.184
  O       -0.393      85.004    -403.466
  C        1.293      83.779    -402.231
  O        2.022      83.865    -403.474
  C        2.194      84.176    -401.055
  N        2.209      79.588    -398.795
  C        2.499      79.969    -400.059
  N        2.463      81.207    -400.587
  C        2.032      82.101    -399.674
  C        1.667      81.853    -398.362
  C        1.772      80.526    -397.918
  N        1.495      80.141    -396.622
  N        1.279      83.018    -397.738
  C        1.423      83.960    -398.653
  N        1.889      83.455    -399.834
  O       -2.494      86.252    -400.958
  O       -2.387      86.565    -398.406
  H        1.357      83.875    -404.193
  H       -2.685      85.332    -400.698
  H        2.813      79.170    -400.723
  H        1.210      85.003    -398.496
  H        3.260      84.016    -401.278
  H        0.878      82.770    -402.176
  H       -0.515      84.617    -401.402
  H        1.611      86.454    -402.677
  H        0.906      88.102    -401.116
  H        1.773      79.211    -396.338
  H        1.370      80.866    -395.932
  H       -0.576      87.501    -401.893
  P       -1.978      84.744    -403.529
  C       -1.548      82.211    -403.098
  O       -2.224      83.395    -402.704
  O       -2.205      84.317    -405.059
  O       -2.809      85.922    -403.141
  H       -3.118      84.510    -405.336
  H       -1.578      81.499    -402.276
  H       -0.499      82.421    -403.350
  H       -2.052      81.776    -403.967
  H       -2.331      90.504    -399.374
  H       -1.079      89.537    -398.633
  H       -2.754      89.267    -398.215

 3  4  5  6  7  8  9  10  11  12  22  25  29  30  31  32 0
 6-311+G(2d,p)
 ****
 33  36  37 0
 6-311+G(2d,p)
 ****
 1  2  13  14  15  16  17  18  19  20  21  23  24  26 0
 3-21G
 ****
 27  28  34  35  38  39  40  41  42  43  44  45  46  47  48 0
 3-21G
 ****


