%nproc=1
%NoSave
%Mem=1900MB
#P OB98/GEN NMR

erre ene a

0 1
  C     -109.464     143.362      51.697
  O     -108.214     144.019      51.651
  H     -109.879     143.336      50.686
  H     -110.153     143.913      52.340
  H     -109.352     142.336      52.056
  P     -107.317     144.074      52.978
  C     -105.147     144.531      51.658
  O     -106.045     144.999      52.655
  C     -103.997     145.521      51.457
  O     -104.508     146.695      50.773
  C     -103.348     145.986      52.765
  O     -101.942     146.134      52.563
  C     -103.979     147.344      53.006
  O     -103.147     148.195      53.791
  C     -104.197     147.848      51.581
  N     -105.275     152.734      50.875
  C     -104.069     152.065      50.787
  N     -102.984     152.809      50.484
  N     -103.938     150.778      50.983
  C     -105.111     150.157      51.257
  C     -106.365     150.704      51.372
  C     -106.493     152.133      51.174
  O     -107.531     152.783      51.255
  N     -107.300     149.748      51.679
  C     -106.610     148.624      51.752
  N     -105.275     148.822      51.515
  O     -106.985     142.741      53.570
  O     -108.168     144.969      53.993
  H     -102.923     147.700      54.609
  H     -108.585     144.418      54.680
  H     -105.317     153.726      50.728
  H     -107.025     147.651      51.975
  H     -103.305     148.331      51.166
  H     -104.935     147.221      53.530
  H     -103.016     153.800      50.297
  H     -103.531     145.293      53.585
  H     -102.093     152.339      50.383
  H     -103.255     145.061      50.792
  H     -105.703     144.417      50.722
  H     -104.754     143.552      51.957
  P     -100.930     145.331      53.516
  C      -99.327     144.718      51.602
  O      -99.465     145.366      52.858
  O     -101.394     143.980      53.948
  O     -100.773     146.313      54.775
  H     -100.669     145.773      55.583
  H      -98.315     144.806      51.265
  H      -99.982     145.176      50.890
  H      -99.580     143.683      51.705

 6  7  8  9  10  11  12  13  14  15  26  29  33  34 0
 6-311+G(2d,p)
 ****
 36  38  39  40  41 0
 6-311+G(2d,p)
 ****
 1  2  3  4  5  16  17  18  19  20  21  22  23  24  25 0
 3-21G
 ****
 27  28  30  31  32  35  37  42  43  44  45  46  47 0
 3-21G
 ****
 48  49 0
 3-21G
 ****


