%nproc=1
%NoSave
%Mem=1900MB
#P OB98/GEN NMR

erre ene a

0 1
  C      -12.035    -183.703     411.458
  O      -11.135    -182.626     411.733
  P      -10.655    -181.741     410.481
  C      -11.666    -179.355     410.636
  O      -10.567    -180.203     410.940
  C      -11.454    -177.929     411.165
  O      -11.169    -177.943     412.590
  C      -10.312    -177.189     410.477
  O      -10.667    -175.798     410.422
  C       -9.153    -177.351     411.454
  O       -8.155    -176.353     411.250
  C       -9.906    -177.260     412.797
  N       -9.157    -177.829     413.917
  C       -8.147    -177.041     414.472
  O       -7.869    -175.946     413.973
  N       -7.440    -177.534     415.549
  C       -7.689    -178.717     415.990
  N       -6.958    -179.152     417.061
  C       -8.706    -179.610     415.401
  C       -9.397    -179.102     414.380
  O      -11.930    -181.773     409.505
  O       -9.433    -182.270     409.803
  H       -8.553    -175.483     411.469
  H      -11.644    -182.012     408.605
  H       -8.864    -180.603     415.791
  H      -10.170    -179.678     413.878
  H      -10.136    -176.217     413.042
  H       -8.692    -178.336     411.332
  H      -10.087    -177.552     409.471
  H      -12.393    -177.373     411.033
  H       -6.267    -178.510     417.445
  H      -12.589    -179.763     411.059
  H       -7.065    -180.055     417.488
  H      -11.814    -179.347     409.544
  P       -9.955    -174.870     409.327
  C      -11.679    -174.663     407.428
  O      -11.160    -174.077     408.614
  O       -9.568    -175.950     408.198
  O       -8.767    -174.062     409.744
  H       -9.054    -175.512     407.499
  H      -12.564    -174.097     407.117
  H      -11.968    -175.705     407.610
  H      -10.938    -174.613     406.633
  H      -12.275    -184.209     412.370
  H      -11.573    -184.390     410.780
  H      -12.931    -183.316     411.018

 3  4  5  6  7  8  9  10  11  12  13  21  23  27  28  29  30  32 0
 6-311+G(2d,p)
 ****
 34  35 0
 6-311+G(2d,p)
 ****
 1  2  14  15  16  17  18  19  20  22  24  25  26 0
 3-21G
 ****
 31  33  36  37  38  39  40  41  42  43  44  45  46 0
 3-21G
 ****


