%nproc=1
%NoSave
%Mem=1900MB
#P OB98/GEN NMR

erre ene a

0 1
  C       85.263     311.415    -215.531
  O       85.559     310.367    -216.471
  P       86.424     310.773    -217.764
  C       87.214     308.349    -218.237
  O       86.525     309.490    -218.728
  C       86.894     307.104    -219.079
  O       85.573     306.584    -218.749
  C       86.928     307.349    -220.587
  O       87.397     306.152    -221.216
  C       85.457     307.534    -220.923
  O       85.207     307.332    -222.306
  C       84.825     306.506    -219.981
  N       80.452     304.478    -218.287
  C       81.702     303.971    -218.402
  N       82.818     304.565    -218.882
  C       82.544     305.843    -219.238
  C       81.321     306.489    -219.185
  C       80.229     305.751    -218.694
  N       78.959     306.249    -218.605
  N       81.429     307.778    -219.692
  C       82.706     307.894    -220.034
  N       83.419     306.764    -219.750
  O       87.904     310.932    -217.181
  O       85.960     312.034    -218.423
  H       85.512     306.434    -222.563
  H       88.160     311.874    -217.149
  H       81.822     302.936    -218.056
  H       83.143     308.772    -220.481
  H       84.900     305.479    -220.372
  H       85.139     308.555    -220.665
  H       87.535     308.205    -220.893
  H       87.637     306.323    -218.808
  H       86.928     308.163    -217.186
  H       78.220     305.641    -218.261
  H       78.772     307.184    -218.948
  H       88.290     308.559    -218.215
  P       88.961     306.118    -221.600
  C       89.241     303.561    -221.284
  O       89.243     304.645    -222.184
  O       89.708     306.121    -220.182
  O       89.398     307.261    -222.471
  H       90.596     306.503    -220.273
  H       88.743     302.713    -221.768
  H       88.723     303.790    -220.343
  H       90.278     303.287    -221.053
  H       84.686     311.017    -214.723
  H       84.706     312.186    -216.020
  H       86.177     311.822    -215.151

 3  4  5  6  7  8  9  10  11  12  22  25  29  30  31  32 0
 6-311+G(2d,p)
 ****
 33  36  37 0
 6-311+G(2d,p)
 ****
 1  2  13  14  15  16  17  18  19  20  21  23  24  26 0
 3-21G
 ****
 27  28  34  35  38  39  40  41  42  43  44  45  46  47  48 0
 3-21G
 ****


