%nproc=1
%NoSave
%Mem=1900MB
#P OB98/GEN NMR

erre ene a

0 1
  C     -262.113    -234.066      24.802
  O     -262.824    -233.894      26.010
  H     -262.114    -233.117      24.257
  H     -262.609    -234.817      24.182
  H     -261.076    -234.361      24.993
  P     -262.744    -235.040      27.129
  C     -260.478    -234.272      28.110
  O     -261.875    -234.428      28.335
  C     -259.840    -233.513      29.276
  O     -260.548    -232.249      29.439
  C     -259.912    -234.274      30.618
  O     -258.732    -233.972      31.378
  C     -261.123    -233.633      31.262
  O     -261.144    -233.824      32.655
  C     -260.958    -232.181      30.823
  N     -262.194    -231.420      31.003
  C     -262.142    -230.320      31.853
  O     -261.123    -229.971      32.457
  N     -263.323    -229.661      32.063
  C     -264.550    -230.054      31.598
  O     -265.588    -229.475      31.876
  C     -264.555    -231.256      30.747
  C     -263.395    -231.874      30.485
  O     -262.296    -236.385      26.659
  O     -264.218    -235.079      27.763
  H     -261.147    -234.783      32.857
  H     -264.375    -235.935      28.206
  H     -263.301    -228.856      32.668
  H     -265.511    -231.607      30.376
  H     -263.365    -232.769      29.876
  H     -260.150    -231.692      31.384
  H     -262.043    -234.070      30.849
  H     -260.006    -235.354      30.492
  H     -258.804    -233.262      29.016
  H     -260.342    -233.710      27.174
  H     -260.019    -235.259      28.003
  P     -257.891    -235.109      32.135
  C     -257.131    -236.707      30.270
  O     -256.727    -235.689      31.180
  O     -258.733    -236.169      32.773
  O     -257.075    -234.312      33.266
  H     -257.145    -234.790      34.113
  H     -256.289    -237.020      29.688
  H     -257.891    -236.324      29.621
  H     -257.516    -237.542      30.817

 6  7  8  9  10  11  12  13  14  15  16  26  31  32  33  34  35 0
 6-311+G(2d,p)
 ****
 36  37 0
 6-311+G(2d,p)
 ****
 1  2  3  4  5  17  18  19  20  21  22  23  24  25 0
 3-21G
 ****
 27  28  29  30  38  39  40  41  42  43  44  45 0
 3-21G
 ****


