%nproc=1
%NoSave
%Mem=1900MB
#P OB98/GEN NMR

erre ene a

0 1
  C      226.874     -24.870    -208.916
  O      226.743     -25.868    -207.892
  P      227.241     -25.494    -206.412
  C      225.095     -24.448    -205.369
  O      226.393     -24.228    -205.905
  C      224.858     -23.560    -204.152
  O      224.760     -22.168    -204.527
  C      223.562     -23.871    -203.416
  O      223.704     -25.029    -202.619
  C      223.332     -22.590    -202.617
  O      223.949     -22.657    -201.323
  C      224.002     -21.505    -203.496
  N      223.043     -20.569    -204.062
  C      222.762     -19.431    -203.288
  O      223.296     -19.285    -202.190
  N      221.866     -18.513    -203.776
  C      221.274     -18.719    -204.918
  N      220.395     -17.781    -205.340
  C      221.525     -19.910    -205.750
  C      222.413     -20.790    -205.262
  O      228.701     -24.891    -206.666
  O      227.279     -26.658    -205.480
  H      223.560     -23.438    -200.880
  H      229.280     -25.093    -205.911
  H      221.007     -20.050    -206.692
  H      222.656     -21.701    -205.810
  H      224.726     -20.932    -202.900
  H      222.262     -22.409    -202.454
  H      222.741     -23.997    -204.147
  H      225.709     -23.676    -203.467
  H      220.253     -16.972    -204.743
  H      224.968     -25.500    -205.098
  H      219.878     -17.847    -206.212
  H      224.357     -24.234    -206.164
  P      222.493     -26.073    -202.583
  C      223.713     -27.589    -204.275
  O      222.553     -26.819    -204.016
  O      221.223     -25.115    -202.783
  O      222.367     -26.946    -201.387
  H      220.397     -25.627    -202.683
  H      223.541     -28.213    -205.165
  H      223.929     -28.258    -203.423
  H      224.570     -26.931    -204.458
  H      226.504     -25.258    -209.842
  H      227.905     -24.606    -209.027
  H      226.311     -24.002    -208.643

 3  4  5  6  7  8  9  10  11  12  13  21  23  27  28  29  30  32 0
 6-311+G(2d,p)
 ****
 34  35 0
 6-311+G(2d,p)
 ****
 1  2  14  15  16  17  18  19  20  22  24  25  26 0
 3-21G
 ****
 31  33  36  37  38  39  40  41  42  43  44  45  46 0
 3-21G
 ****


