%nproc=1
%NoSave
%Mem=1900MB
#P OB98/GEN NMR

erre ene a

0 1
  C       87.252     400.621     116.555
  O       88.404     401.433     116.634
  H       87.171     400.038     117.474
  H       87.341     399.932     115.711
  H       86.347     401.225     116.445
  P       88.606     402.600     115.553
  C       88.998     402.667     113.005
  O       89.043     401.879     114.187
  C       89.872     402.052     111.908
  O       91.270     402.155     112.302
  C       89.580     400.568     111.637
  O       89.855     400.322     110.250
  C       90.616     399.884     112.505
  O       90.807     398.539     112.129
  C       91.813     400.820     112.312
  N       92.835     400.645     113.345
  C       93.780     399.655     113.126
  O       93.768     398.919     112.134
  N       94.723     399.493     114.099
  C       94.774     400.179     115.280
  O       95.627     399.971     116.136
  C       93.720     401.187     115.479
  C       92.816     401.379     114.515
  O       89.489     403.727     115.975
  O       87.120     403.096     115.224
  H       91.513     398.130     112.677
  H       87.128     404.041     114.984
  H       95.424     398.785     113.948
  H       93.729     401.742     116.412
  H       92.027     402.111     114.636
  H       92.286     400.645     111.336
  H       90.300     399.888     113.553
  H       88.555     400.279     111.881
  H       89.757     402.649     110.994
  H       89.368     403.669     113.253
  H       87.964     402.745     112.656
  P       88.708     399.876     109.219
  C       87.066     397.900     109.012
  O       87.824     398.718     109.899
  O       89.207     399.537     107.852
  O       87.704     401.124     109.165
  H       87.257     401.147     108.295
  H       86.523     397.171     109.576
  H       87.727     397.405     108.331
  H       86.380     398.510     108.463

 6  7  8  9  10  11  12  13  14  15  16  26  31  32  33  34  35 0
 6-311+G(2d,p)
 ****
 36  37 0
 6-311+G(2d,p)
 ****
 1  2  3  4  5  17  18  19  20  21  22  23  24  25 0
 3-21G
 ****
 27  28  29  30  38  39  40  41  42  43  44  45 0
 3-21G
 ****


