%nproc=1
%NoSave
%Mem=1900MB
#P OB98/GEN NMR

erre ene a

0 1
  C       91.656    -174.592      32.661
  O       92.123    -173.371      32.122
  H       90.679    -174.419      33.120
  H       92.345    -174.952      33.430
  H       91.545    -175.346      31.876
  P       93.499    -173.361      31.298
  C       95.267    -172.970      33.126
  O       94.633    -173.926      32.287
  C       96.234    -173.657      34.089
  O       95.463    -174.412      35.057
  C       97.209    -174.620      33.403
  O       98.474    -174.531      34.051
  C       96.594    -175.986      33.668
  O       97.573    -177.029      33.660
  C       95.939    -175.773      35.031
  N       93.925    -179.040      38.321
  C       95.007    -178.194      38.454
  N       95.676    -178.237      39.633
  N       95.408    -177.376      37.517
  C       94.643    -177.426      36.398
  C       93.552    -178.222      36.142
  C       93.124    -179.135      37.187
  O       92.182    -179.917      37.119
  N       93.062    -178.001      34.880
  C       93.859    -177.081      34.373
  N       94.840    -176.704      35.250
  O       93.844    -172.065      30.637
  O       93.319    -174.541      30.234
  H       97.087    -177.879      33.729
  H       93.078    -174.183      29.359
  H       93.670    -179.657      39.073
  H       93.774    -176.656      33.376
  H       96.644    -175.914      35.860
  H       95.847    -176.212      32.900
  H       95.412    -178.829      40.404
  H       97.319    -174.421      32.330
  H       96.454    -177.608      39.760
  H       96.775    -172.885      34.646
  H       94.489    -172.443      33.691
  H       95.807    -172.244      32.505
  P       99.704    -173.871      33.260
  C      101.237    -175.945      33.224
  O      100.461    -175.035      32.451
  O      100.584    -172.976      34.063
  O       98.966    -173.052      32.088
  H       99.513    -172.277      31.854
  H      101.688    -176.668      32.577
  H      100.605    -176.443      33.929
  H      102.001    -175.408      33.746

 6  7  8  9  10  11  12  13  14  15  26  29  33  34 0
 6-311+G(2d,p)
 ****
 36  38  39  40  41 0
 6-311+G(2d,p)
 ****
 1  2  3  4  5  16  17  18  19  20  21  22  23  24  25 0
 3-21G
 ****
 27  28  30  31  32  35  37  42  43  44  45  46  47 0
 3-21G
 ****
 48  49 0
 3-21G
 ****


