%nproc=1
%NoSave
%Mem=1900MB
#P OB98/GEN NMR

erre ene a

0 1
  C     -188.876     790.143    1011.394
  O     -188.413     789.456    1010.244
  P     -186.824     789.389    1010.004
  C     -186.493     786.814    1010.516
  O     -186.302     788.165    1010.914
  C     -185.259     785.990    1010.856
  O     -184.224     786.201    1009.856
  C     -184.607     786.328    1012.186
  O     -185.321     785.791    1013.279
  C     -183.205     785.755    1011.995
  O     -183.217     784.337    1012.221
  C     -182.942     786.055    1010.500
  N     -182.097     787.225    1010.284
  C     -180.812     787.170    1010.829
  O     -180.398     786.200    1011.451
  N     -180.043     788.284    1010.636
  C     -180.439     789.443    1010.025
  O     -179.714     790.427    1009.918
  C     -181.812     789.454    1009.494
  C     -182.565     788.359    1009.655
  O     -186.346     790.707    1010.762
  O     -186.455     789.330    1008.561
  H     -186.967     790.950    1011.480
  H     -182.334     784.008    1011.962
  H     -179.107     788.261    1011.009
  H     -182.163     790.359    1009.018
  H     -183.579     788.356    1009.276
  H     -182.466     785.186    1010.023
  H     -182.467     786.181    1012.674
  H     -184.539     787.418    1012.303
  H     -185.526     784.928    1010.827
  H     -186.667     786.781    1009.435
  H     -187.368     786.425    1011.025
  P     -185.439     786.712    1014.598
  C     -187.275     788.361    1013.771
  O     -185.914     788.151    1014.108
  O     -183.884     786.928    1014.957
  O     -186.254     786.078    1015.703
  H     -183.336     787.095    1014.184
  H     -187.487     789.437    1013.809
  H     -187.952     787.840    1014.458
  H     -187.454     788.010    1012.758
  H     -189.945     790.107    1011.425
  H     -188.554     791.163    1011.354
  H     -188.478     789.678    1012.272

 3  4  5  6  7  8  9  10  11  12  13  24  28  29  30  31  32 0
 6-311+G(2d,p)
 ****
 33  34 0
 6-311+G(2d,p)
 ****
 1  2  14  15  16  17  18  19  20  21  22  23  25  26  27 0
 3-21G
 ****
 35  36  37  38  39  40  41  42  43  44  45 0
 3-21G
 ****


