%nproc=1
%NoSave
%Mem=1900MB
#P OB98/GEN NMR

erre ene a

0 1
  C      165.144     -61.207     -75.566
  O      165.087     -62.169     -76.600
  H      166.172     -61.091     -75.215
  H      164.797     -60.247     -75.959
  H      164.497     -61.503     -74.736
  P      165.548     -63.660     -76.228
  C      167.698     -64.621     -75.130
  O      167.107     -63.555     -75.862
  C      169.037     -64.168     -74.559
  O      168.864     -62.967     -73.774
  C      169.696     -65.179     -73.627
  O      170.382     -66.194     -74.335
  C      170.662     -64.278     -72.878
  O      171.803     -63.994     -73.709
  C      169.819     -63.012     -72.679
  N      169.980     -61.499     -67.794
  C      170.873     -61.393     -68.801
  N      170.756     -61.825     -70.072
  C      169.570     -62.424     -70.263
  C      168.564     -62.615     -69.331
  C      168.800     -62.113     -68.041
  N      167.897     -62.234     -67.007
  N      167.505     -63.304     -69.890
  C      167.856     -63.495     -71.145
  N      169.099     -62.990     -71.418
  O      165.556     -64.414     -77.640
  O      164.714     -64.362     -75.210
  H      172.264     -63.237     -73.300
  H      165.504     -65.379     -77.505
  H      171.805     -60.894     -68.550
  H      167.248     -63.989     -71.892
  H      170.419     -62.096     -72.728
  H      171.040     -64.726     -71.957
  H      168.975     -65.601     -72.915
  H      169.700     -63.925     -75.399
  H      167.859     -65.471     -75.799
  H      168.237     -62.009     -66.084
  H      167.086     -62.818     -67.143
  H      167.021     -64.921     -74.325
  P      170.458     -67.646     -73.656
  C      171.015     -68.254     -71.189
  O      171.338     -67.463     -72.329
  O      171.424     -68.458     -74.637
  O      169.138     -68.319     -73.472
  H      171.240     -69.415     -74.593
  H      171.687     -68.019     -70.390
  H      171.105     -69.291     -71.437
  H      170.011     -68.046     -70.884

 6  7  8  9  10  11  12  13  14  15  25  28  32  33  34  35 0
 6-311+G(2d,p)
 ****
 36  39  40 0
 6-311+G(2d,p)
 ****
 1  2  3  4  5  16  17  18  19  20  21  22  23  24 0
 3-21G
 ****
 26  27  29  30  31  37  38  41  42  43  44  45  46  47 0
 3-21G
 ****
 48 0
 3-21G
 ****


