%nproc=1
%NoSave
%Mem=1900MB
#P OB98/GEN NMR

erre ene a

0 1
  C      -18.686      55.293     -83.294
  O      -17.800      54.287     -83.745
  H      -19.695      54.875     -83.246
  H      -18.691      56.139     -83.987
  H      -18.402      55.634     -82.295
  P      -16.250      54.659     -83.903
  C      -14.101      53.228     -83.917
  O      -15.436      53.356     -83.445
  C      -13.242      52.531     -82.868
  O      -13.045      53.388     -81.727
  C      -13.844      51.232     -82.336
  O      -13.596      50.166     -83.238
  C      -13.089      51.096     -81.025
  O      -11.752      50.623     -81.281
  C      -13.053      52.554     -80.537
  N      -14.613      53.543     -75.816
  C      -13.383      53.107     -76.271
  N      -12.451      52.859     -75.326
  N      -13.102      52.913     -77.533
  C      -14.153      53.134     -78.355
  C      -15.422      53.551     -78.022
  C      -15.705      53.816     -76.628
  O      -16.776      54.220     -76.184
  N      -16.240      53.602     -79.122
  C      -15.455      53.253     -80.123
  N      -14.182      52.945     -79.708
  O      -15.798      55.921     -83.232
  O      -16.019      54.702     -85.485
  H      -11.843      49.737     -81.679
  H      -16.139      55.604     -85.834
  H      -14.774      53.655     -74.829
  H      -15.757      53.212     -81.162
  H      -12.143      52.781     -79.970
  H      -13.555      50.396     -80.332
  H      -12.699      52.717     -74.355
  H      -14.910      51.340     -82.114
  H      -11.561      52.491     -75.635
  H      -12.253      52.352     -83.310
  H      -13.723      54.236     -84.114
  H      -14.080      52.656     -84.849
  P      -14.649      48.963     -83.406
  C      -14.791      47.234     -85.321
  O      -14.614      48.598     -84.967
  O      -16.007      49.239     -82.860
  O      -13.928      47.703     -82.741
  H      -14.099      47.616     -81.771
  H      -14.746      47.133     -86.385
  H      -15.744      46.895     -84.971
  H      -14.017      46.646     -84.874

 6  7  8  9  10  11  12  13  14  15  26  29  33  34 0
 6-311+G(2d,p)
 ****
 36  38  39  40  41 0
 6-311+G(2d,p)
 ****
 1  2  3  4  5  16  17  18  19  20  21  22  23  24  25 0
 3-21G
 ****
 27  28  30  31  32  35  37  42  43  44  45  46  47 0
 3-21G
 ****
 48  49 0
 3-21G
 ****


