%nproc=1
%NoSave
%Mem=1900MB
#P OB98/GEN NMR

erre ene a

0 1
  C      358.411     873.225    -363.398
  O      359.585     872.765    -362.756
  H      358.020     874.102    -362.880
  H      358.660     873.505    -364.431
  H      357.655     872.434    -363.427
  P      359.444     872.324    -361.219
  C      360.884     870.874    -359.622
  O      360.859     871.715    -360.770
  C      362.258     870.220    -359.485
  O      362.513     869.427    -360.676
  C      363.429     871.210    -359.314
  O      364.132     870.942    -358.085
  C      364.363     870.904    -360.488
  O      365.741     870.939    -360.129
  C      363.928     869.508    -360.937
  N      367.576     868.262    -364.259
  C      367.464     868.041    -362.925
  N      366.415     868.301    -362.117
  C      365.407     868.830    -362.822
  C      365.365     869.097    -364.180
  C      366.522     868.818    -364.913
  N      366.665     869.102    -366.262
  N      364.151     869.661    -364.532
  C      363.489     869.764    -363.408
  N      364.205     869.299    -362.341
  O      358.482     871.044    -361.291
  O      358.892     873.382    -360.315
  H      366.239     870.690    -360.928
  H      357.776     871.132    -360.621
  H      368.328     867.592    -362.448
  H      362.495     870.210    -363.288
  H      364.426     868.716    -360.354
  H      364.177     871.662    -361.273
  H      363.100     872.257    -359.330
  H      362.230     869.525    -358.643
  H      360.124     870.083    -359.727
  H      367.582     868.965    -366.676
  H      365.933     869.607    -366.717
  H      360.646     871.467    -358.738
  P      364.025     872.054    -356.934
  C      363.429     871.645    -354.439
  O      364.279     871.321    -355.536
  O      362.459     872.399    -356.903
  O      364.858     873.273    -357.190
  H      362.323     873.303    -356.574
  H      363.722     871.077    -353.581
  H      362.416     871.412    -354.692
  H      363.511     872.689    -354.221

 6  7  8  9  10  11  12  13  14  15  25  28  32  33  34  35 0
 6-311+G(2d,p)
 ****
 36  39  40 0
 6-311+G(2d,p)
 ****
 1  2  3  4  5  16  17  18  19  20  21  22  23  24 0
 3-21G
 ****
 26  27  29  30  31  37  38  41  42  43  44  45  46  47  48 0
 3-21G
 ****


