%nproc=1
%NoSave
%Mem=1900MB
#P OB98/GEN NMR

erre ene a

0 1
  C      -84.064      32.042     246.431
  O      -84.299      32.385     245.075
  P      -83.695      31.432     243.938
  C      -81.715      32.952     243.221
  O      -82.954      32.360     242.857
  C      -81.371      34.110     242.283
  O      -80.940      33.586     240.998
  C      -82.548      35.059     242.015
  O      -82.053      36.395     241.849
  C      -83.071      34.599     240.670
  O      -83.790      35.638     240.006
  C      -81.770      34.185     239.982
  N      -81.536      33.608     234.965
  C      -80.981      34.588     235.761
  N      -80.349      35.599     235.120
  N      -81.031      34.578     237.065
  C      -81.700      33.512     237.569
  C      -82.283      32.468     236.882
  C      -82.228      32.500     235.437
  O      -82.725      31.677     234.673
  N      -82.837      31.551     237.738
  C      -82.634      32.056     238.941
  N      -81.980      33.261     238.886
  O      -85.004      30.927     243.164
  O      -82.899      30.278     244.447
  H      -83.976      35.319     239.102
  H      -85.195      30.002     243.405
  H      -81.482      33.665     233.961
  H      -82.958      31.608     239.870
  H      -81.231      35.056     239.587
  H      -83.745      33.744     240.803
  H      -80.335      35.699     234.116
  H      -83.321      35.050     242.791
  H      -79.971      36.352     235.678
  H      -80.519      34.662     242.703
  H      -80.929      32.199     243.163
  H      -81.770      33.308     244.255
  P      -82.906      37.554     242.565
  C      -82.120      39.555     241.095
  O      -82.075      38.906     242.351
  O      -82.723      37.236     244.123
  O      -84.340      37.597     242.159
  H      -83.475      37.591     244.632
  H      -82.574      40.540     241.220
  H      -82.695      38.988     240.356
  H      -81.098      39.678     240.720
  H      -84.526      32.767     247.068
  H      -83.010      32.024     246.617
  H      -84.478      31.076     246.632

 3  4  5  6  7  8  9  10  11  12  23  26  30  31 0
 6-311+G(2d,p)
 ****
 33  35  36  37  38 0
 6-311+G(2d,p)
 ****
 1  2  13  14  15  16  17  18  19  20  21  22  24  25 0
 3-21G
 ****
 27  28  29  32  34  39  40  41  42  43  44  45  46  47  48  49 0
 3-21G
 ****


