%nproc=1
%NoSave
%Mem=1900MB
#P OB98/GEN NMR

erre ene a

0 1
  C      195.499     252.058    -107.758
  O      195.601     250.898    -106.960
  H      194.516     252.070    -108.234
  H      196.270     252.041    -108.537
  H      195.607     252.964    -107.155
  P      196.798     250.789    -105.903
  C      195.582     251.304    -103.682
  O      196.160     250.306    -104.514
  C      194.424     250.727    -102.862
  O      193.277     250.541    -103.736
  C      194.775     249.350    -102.287
  O      194.065     249.080    -101.081
  C      194.289     248.399    -103.369
  O      194.026     247.084    -102.885
  C      193.044     249.129    -103.878
  N      191.895     245.507    -107.277
  C      192.355     245.375    -105.979
  N      192.527     244.107    -105.532
  N      192.641     246.387    -105.206
  C      192.490     247.589    -105.807
  C      192.062     247.846    -107.093
  C      191.716     246.718    -107.929
  O      191.328     246.781    -109.089
  N      192.046     249.196    -107.353
  C      192.461     249.752    -106.233
  N      192.721     248.819    -105.258
  O      197.172     252.317    -105.595
  O      197.996     250.012    -106.361
  H      193.849     246.519    -103.659
  H      198.080     252.383    -105.256
  H      191.662     244.693    -107.817
  H      192.581     250.818    -106.075
  H      192.170     248.873    -103.269
  H      195.069     248.314    -104.127
  H      192.508     243.317    -106.155
  H      195.840     249.227    -102.111
  H      193.145     243.996    -104.720
  H      194.118     251.438    -102.089
  H      195.230     252.099    -104.345
  H      196.341     251.738    -103.029
  P      194.490     247.796    -100.218
  C      195.341     249.028     -98.034
  O      194.434     248.148     -98.659
  O      196.053     247.637    -100.517
  O      193.722     246.549    -100.545
  H      196.223     246.797    -100.989
  H      195.104     249.104     -96.993
  H      195.270     249.994     -98.488
  H      196.337     248.653     -98.147

 6  7  8  9  10  11  12  13  14  15  26  29  33  34 0
 6-311+G(2d,p)
 ****
 36  38  39  40  41 0
 6-311+G(2d,p)
 ****
 1  2  3  4  5  16  17  18  19  20  21  22  23  24  25 0
 3-21G
 ****
 27  28  30  31  32  35  37  42  43  44  45  46  47 0
 3-21G
 ****
 48  49 0
 3-21G
 ****


