%nproc=1
%NoSave
%Mem=1900MB
#P OB98/GEN NMR

erre ene a

0 1
  C       66.662    -631.804      -1.495
  O       67.133    -633.064      -1.929
  H       65.638    -631.890      -1.129
  H       67.297    -631.458      -0.669
  H       66.715    -631.079      -2.309
  P       66.312    -633.753      -3.130
  C       68.264    -635.329      -3.783
  O       66.927    -635.230      -3.331
  C       68.933    -636.562      -3.204
  O       69.199    -636.323      -1.790
  C       68.094    -637.856      -3.315
  O       68.870    -638.923      -3.879
  C       67.747    -638.200      -1.868
  O       67.681    -639.600      -1.642
  C       68.873    -637.546      -1.097
  N       66.702    -639.536       3.070
  C       67.282    -640.109       2.006
  N       67.928    -639.537       0.966
  C       67.976    -638.206       1.143
  C       67.450    -637.456       2.181
  C       66.759    -638.183       3.177
  N       66.120    -637.564       4.229
  N       67.678    -636.101       1.999
  C       68.297    -636.022       0.848
  N       68.493    -637.262       0.276
  O       66.827    -632.952      -4.424
  O       64.835    -633.679      -2.991
  H       67.351    -639.742      -0.732
  H       66.059    -632.507      -4.839
  H       67.213    -641.201       1.957
  H       68.600    -635.109       0.347
  H       69.778    -638.164      -1.087
  H       66.773    -637.758      -1.611
  H       67.183    -637.703      -3.919
  H       69.908    -636.708      -3.686
  H       68.821    -634.435      -3.468
  H       65.552    -638.159       4.836
  H       66.057    -636.569       4.266
  H       68.268    -635.371      -4.882
  P       68.083    -639.945      -4.836
  C       70.171    -640.271      -6.358
  O       69.173    -640.887      -5.532
  O       67.564    -638.995      -6.015
  O       66.940    -640.661      -4.164
  H       66.585    -639.076      -6.109
  H       70.823    -641.023      -6.750
  H       70.738    -639.576      -5.774
  H       69.696    -639.754      -7.166

 6  7  8  9  10  11  12  13  14  15  25  28  32  33  34  35 0
 6-311+G(2d,p)
 ****
 36  39  40 0
 6-311+G(2d,p)
 ****
 1  2  3  4  5  16  17  18  19  20  21  22  23  24 0
 3-21G
 ****
 26  27  29  30  31  37  38  41  42  43  44  45  46  47  48 0
 3-21G
 ****


