%nproc=1
%NoSave
%Mem=1900MB
#P OB98/GEN NMR

erre ene a

0 1
  C      -43.599    -156.382     217.123
  O      -44.126    -155.154     216.654
  H      -44.271    -157.190     216.815
  H      -43.545    -156.373     218.213
  H      -42.611    -156.568     216.696
  P      -43.267    -153.815     216.845
  C      -44.064    -152.839     214.593
  O      -43.994    -152.653     215.999
  C      -45.193    -151.986     213.992
  O      -46.409    -152.779     213.971
  C      -45.484    -150.697     214.779
  O      -45.812    -149.652     213.863
  C      -46.702    -151.061     215.606
  O      -47.486    -149.916     215.949
  C      -47.428    -152.045     214.685
  N      -52.123    -152.785     216.415
  C      -51.619    -151.785     215.606
  N      -52.484    -150.829     215.209
  N      -50.371    -151.725     215.221
  C      -49.619    -152.766     215.669
  C      -49.998    -153.811     216.474
  C      -51.376    -153.856     216.911
  O      -51.878    -154.706     217.645
  N      -48.939    -154.656     216.733
  C      -47.921    -154.114     216.083
  N      -48.279    -152.957     215.433
  O      -41.801    -153.962     216.570
  O      -43.539    -153.379     218.360
  H      -47.477    -149.323     215.167
  H      -42.769    -153.575     218.922
  H      -53.089    -152.778     216.692
  H      -46.917    -154.511     216.058
  H      -48.069    -151.536     213.949
  H      -46.386    -151.554     216.534
  H      -53.465    -150.825     215.451
  H      -44.639    -150.395     215.397
  H      -52.149    -150.096     214.591
  H      -44.939    -151.756     212.951
  H      -44.257    -153.897     214.390
  H      -43.103    -152.557     214.141
  P      -44.840    -148.378     213.755
  C      -45.035    -148.369     211.188
  O      -45.153    -147.602     212.382
  O      -43.393    -148.655     214.002
  O      -45.429    -147.378     214.866
  H      -44.695    -146.880     215.262
  H      -45.265    -147.753     210.344
  H      -45.717    -149.193     211.224
  H      -44.035    -148.738     211.098

 6  7  8  9  10  11  12  13  14  15  26  29  33  34 0
 6-311+G(2d,p)
 ****
 36  38  39  40  41 0
 6-311+G(2d,p)
 ****
 1  2  3  4  5  16  17  18  19  20  21  22  23  24  25 0
 3-21G
 ****
 27  28  30  31  32  35  37  42  43  44  45  46  47 0
 3-21G
 ****
 48  49 0
 3-21G
 ****


