%nproc=1
%NoSave
%Mem=1900MB
#P OB98/GEN NMR

erre ene a

0 1
  C     -937.045     108.395    -991.727
  O     -936.704     107.029    -991.694
  H     -936.349     108.925    -992.394
  H     -936.969     108.842    -990.728
  H     -938.065     108.516    -992.119
  P     -937.538     106.113    -990.674
  C     -937.771     106.140    -988.070
  O     -937.218     106.747    -989.229
  C     -936.812     106.275    -986.893
  O     -936.587     107.679    -986.590
  C     -937.282     105.648    -985.584
  O     -937.160     104.233    -985.566
  C     -936.358     106.324    -984.620
  O     -935.038     105.740    -984.711
  C     -936.357     107.781    -985.150
  N     -937.394     108.614    -984.542
  C     -936.974     109.820    -983.955
  O     -935.785     110.135    -983.987
  N     -937.903     110.624    -983.357
  C     -939.160     110.280    -983.347
  N     -940.032     111.097    -982.719
  C     -939.653     109.019    -983.948
  C     -938.714     108.241    -984.528
  O     -936.716     104.728    -990.650
  O     -939.002     105.957    -990.980
  H     -934.727     105.912    -985.626
  H     -937.074     104.148    -989.938
  H     -940.711     108.772    -983.906
  H     -939.026     107.322    -984.997
  H     -935.386     108.252    -985.006
  H     -936.673     106.227    -983.583
  H     -938.322     105.954    -985.384
  H     -935.835     105.845    -987.203
  H     -939.652     111.923    -982.250
  H     -937.945     105.081    -988.288
  H     -940.995     110.851    -982.526
  H     -938.724     106.613    -987.812
  P     -937.943     103.447    -984.400
  C     -937.887     103.533    -981.807
  O     -937.228     103.850    -983.015
  O     -937.487     101.915    -984.640
  O     -939.440     103.609    -984.425
  H     -938.223     101.318    -984.397
  H     -937.293     103.861    -980.980
  H     -938.030     102.474    -981.746
  H     -938.838     104.024    -981.780

 6  7  8  9  10  11  12  13  14  15  16  26  30  31  32  33  35 0
 6-311+G(2d,p)
 ****
 37  38 0
 6-311+G(2d,p)
 ****
 1  2  3  4  5  17  18  19  20  21  22  23  24  25 0
 3-21G
 ****
 27  28  29  34  36  39  40  41  42  43  44  45  46 0
 3-21G
 ****


