%nproc=1
%NoSave
%Mem=1900MB
#P OB98/GEN NMR

erre ene a

0 1
  C       -9.837     -24.247     193.250
  O      -10.568     -24.051     192.054
  P      -12.162     -23.908     192.070
  C      -13.867     -22.372     193.208
  O      -12.561     -22.925     193.273
  C      -14.490     -22.251     194.598
  O      -14.764     -23.579     195.122
  C      -13.612     -21.514     195.619
  O      -14.484     -20.726     196.440
  C      -13.003     -22.646     196.425
  O      -12.561     -22.222     197.707
  C      -14.159     -23.651     196.430
  N      -13.721     -25.003     196.737
  C      -13.584     -25.329     198.090
  O      -13.706     -24.462     198.950
  N      -13.301     -26.633     198.421
  C      -12.993     -27.479     197.484
  N      -12.785     -28.774     197.850
  C      -12.882     -27.097     196.062
  C      -13.297     -25.869     195.756
  O      -12.913     -25.200     192.052
  O      -12.495     -23.036     190.766
  H      -13.161     -23.509     190.230
  H      -11.759     -21.666     197.598
  H      -12.503     -27.803     195.336
  H      -13.281     -25.506     194.735
  H      -14.926     -23.353     197.157
  H      -12.140     -23.057     195.886
  H      -12.872     -20.862     195.149
  H      -15.457     -21.739     194.496
  H      -12.912     -29.006     198.827
  H      -14.488     -23.029     192.596
  H      -12.859     -29.542     197.184
  H      -13.835     -21.393     192.713
  P      -13.927     -19.338     197.029
  C      -13.410     -17.001     196.027
  O      -13.587     -18.382     195.788
  O      -12.465     -19.764     197.537
  O      -14.698     -18.736     198.159
  H      -12.184     -19.157     198.246
  H      -13.251     -16.499     195.071
  H      -12.532     -16.832     196.658
  H      -14.296     -16.575     196.504
  H       -8.794     -24.317     193.023
  H      -10.161     -25.151     193.722
  H      -10.004     -23.421     193.909

 3  4  5  6  7  8  9  10  11  12  13  24  27  28  29  30  32 0
 6-311+G(2d,p)
 ****
 34  35 0
 6-311+G(2d,p)
 ****
 1  2  14  15  16  17  18  19  20  21  22  23  25  26 0
 3-21G
 ****
 31  33  36  37  38  39  40  41  42  43  44  45  46 0
 3-21G
 ****


