%nproc=1
%NoSave
%Mem=1900MB
#P OB98/GEN NMR

erre ene a

0 1
  C       -3.677     301.078     645.985
  O       -3.650     300.042     646.957
  P       -4.595     298.758     646.832
  C       -3.011     297.525     648.445
  O       -4.348     297.932     648.190
  C       -2.738     297.526     649.948
  O       -2.941     298.863     650.451
  C       -3.647     296.635     650.795
  O       -3.255     295.274     650.860
  C       -3.482     297.276     652.167
  O       -2.238     296.842     652.755
  C       -3.420     298.770     651.818
  N       -6.743     300.988     655.012
  C       -5.518     300.461     655.218
  N       -4.700     299.868     654.320
  C       -5.254     299.894     653.093
  C       -6.498     300.398     652.744
  C       -7.257     300.970     653.771
  N       -8.513     301.531     653.576
  N       -6.727     300.235     651.381
  C       -5.642     299.639     650.932
  N       -4.716     299.424     651.922
  O       -4.434     297.989     645.566
  O       -6.076     299.334     647.027
  H       -2.342     295.888     652.947
  H       -6.735     298.691     646.710
  H       -5.127     300.508     656.242
  H       -5.482     299.352     649.900
  H       -2.710     299.316     652.456
  H       -4.288     297.003     652.863
  H       -4.699     296.729     650.474
  H       -1.685     297.261     650.113
  H       -2.337     298.237     647.954
  H       -8.929     302.027     654.342
  H       -8.817     301.665     652.609
  H       -2.831     296.528     648.010
  P       -4.418     294.175     651.113
  C       -3.383     292.142     649.835
  O       -3.680     292.748     651.067
  O       -5.599     294.321     650.213
  O       -4.763     294.373     652.666
  H       -4.048     294.120     653.283
  H       -2.752     291.260     650.019
  H       -2.851     292.820     649.172
  H       -4.313     291.796     649.347
  H       -2.974     301.838     646.254
  H       -4.659     301.500     645.941
  H       -3.418     300.676     645.028

 3  4  5  6  7  8  9  10  11  12  22  25  29  30  31  32 0
 6-311+G(2d,p)
 ****
 33  36  37 0
 6-311+G(2d,p)
 ****
 1  2  13  14  15  16  17  18  19  20  21  23  24  26 0
 3-21G
 ****
 27  28  34  35  38  39  40  41  42  43  44  45  46  47  48 0
 3-21G
 ****


