%nproc=1
%NoSave
%Mem=1900MB
#P OB98/GEN NMR

erre ene a

0 1
  C     -121.394     165.339    -438.423
  O     -121.536     166.747    -438.486
  H     -122.367     164.902    -438.183
  H     -120.682     165.060    -437.642
  H     -121.065     164.944    -439.387
  P     -120.238     167.623    -438.823
  C     -119.819     168.261    -436.351
  O     -119.325     167.584    -437.503
  C     -118.803     168.163    -435.211
  O     -118.728     166.810    -434.722
  C     -117.385     168.564    -435.612
  O     -117.249     169.978    -435.604
  C     -116.589     167.879    -434.514
  O     -116.688     168.638    -433.295
  C     -117.342     166.545    -434.373
  N     -114.126     162.637    -434.749
  C     -114.298     163.549    -433.721
  N     -113.469     163.426    -432.667
  N     -115.195     164.508    -433.743
  C     -115.905     164.546    -434.898
  C     -115.806     163.712    -435.990
  C     -114.853     162.623    -435.934
  O     -114.678     161.790    -436.813
  N     -116.649     164.111    -437.000
  C     -117.276     165.162    -436.504
  N     -116.849     165.479    -435.234
  O     -120.488     169.008    -439.344
  O     -119.424     166.725    -439.866
  H     -116.168     168.161    -432.620
  H     -119.654     166.952    -440.784
  H     -113.406     161.944    -434.682
  H     -118.046     165.725    -437.018
  H     -117.325     166.162    -433.343
  H     -115.528     167.785    -434.747
  H     -112.602     162.910    -432.725
  H     -117.094     168.133    -436.576
  H     -113.548     164.112    -431.926
  H     -119.170     168.791    -434.385
  H     -120.766     167.781    -436.069
  H     -120.010     169.313    -436.584
  P     -116.512     170.744    -436.812
  C     -114.184     170.339    -435.764
  O     -115.043     170.104    -436.877
  O     -116.547     172.231    -436.723
  O     -117.199     170.158    -438.134
  H     -118.008     170.660    -438.411
  H     -113.242     169.861    -435.933
  H     -114.632     169.941    -434.878
  H     -114.034     171.392    -435.646

 6  7  8  9  10  11  12  13  14  15  26  29  33  34 0
 6-311+G(2d,p)
 ****
 36  38  39  40  41 0
 6-311+G(2d,p)
 ****
 1  2  3  4  5  16  17  18  19  20  21  22  23  24  25 0
 3-21G
 ****
 27  28  30  31  32  35  37  42  43  44  45  46  47 0
 3-21G
 ****
 48  49 0
 3-21G
 ****


