%nproc=1
%NoSave
%Mem=1900MB
#P OB98/GEN NMR

erre ene a

0 1
  C       15.454    -290.046      45.670
  O       14.073    -289.666      45.621
  P       13.216    -290.135      44.348
  C       11.661    -292.020      45.230
  O       11.784    -290.654      44.854
  C       10.471    -292.240      46.173
  O       10.714    -291.625      47.466
  C        9.156    -291.649      45.644
  O        8.075    -292.450      46.135
  C        9.112    -290.294      46.319
  O        7.787    -289.749      46.316
  C        9.669    -290.649      47.693
  N        8.649    -287.208      51.239
  C        7.867    -288.234      50.736
  N        6.646    -288.380      51.296
  N        8.251    -289.038      49.783
  C        9.510    -288.789      49.349
  C       10.381    -287.804      49.756
  C        9.934    -286.904      50.795
  O       10.575    -285.968      51.271
  N       11.563    -287.858      49.064
  C       11.403    -288.875      48.231
  N       10.193    -289.493      48.396
  O       13.960    -291.481      43.894
  O       13.185    -289.137      43.240
  H        7.748    -289.070      47.026
  H       14.449    -291.323      43.065
  H        8.301    -286.606      51.966
  H       12.131    -289.202      47.503
  H        8.915    -291.106      48.351
  H        9.766    -289.591      45.794
  H        6.307    -287.827      52.066
  H        9.086    -291.583      44.552
  H        6.066    -289.153      50.979
  H       10.351    -293.314      46.338
  H       12.581    -292.358      45.723
  H       11.570    -292.628      44.325
  P        7.768    -293.817      45.358
  C        9.275    -295.171      46.981
  O        7.990    -294.991      46.423
  O        9.016    -293.973      44.363
  O        6.466    -293.844      44.627
  H        8.771    -294.515      43.595
  H        9.283    -294.767      48.000
  H       10.051    -294.673      46.390
  H        9.503    -296.243      47.018
  H       15.896    -289.667      46.568
  H       15.966    -289.641      44.822
  H       15.531    -291.113      45.657

 3  4  5  6  7  8  9  10  11  12  23  26  30  31 0
 6-311+G(2d,p)
 ****
 33  35  36  37  38 0
 6-311+G(2d,p)
 ****
 1  2  13  14  15  16  17  18  19  20  21  22  24  25 0
 3-21G
 ****
 27  28  29  32  34  39  40  41  42  43  44  45  46  47  48  49 0
 3-21G
 ****


