%nproc=1
%NoSave
%Mem=1900MB
#P OB98/GEN NMR

erre ene a

0 1
  C      613.185     219.310     642.044
  O      612.695     220.632     641.866
  P      611.902     221.304     643.096
  C      609.859     219.780     642.516
  O      610.339     221.108     642.782
  C      608.341     219.801     642.389
  O      607.736     220.324     643.589
  C      607.802     220.673     641.267
  O      607.867     220.022     639.999
  C      606.362     220.850     641.689
  O      605.583     219.689     641.338
  C      606.491     220.967     643.212
  N      603.600     224.815     644.774
  C      603.267     223.487     644.557
  N      601.973     223.152     644.738
  N      604.132     222.568     644.216
  C      605.402     223.048     644.077
  C      605.859     224.341     644.266
  C      604.880     225.334     644.626
  O      605.099     226.543     644.779
  N      607.191     224.432     644.034
  C      607.571     223.209     643.714
  N      606.501     222.344     643.676
  O      612.128     222.866     642.873
  O      612.359     220.868     644.439
  H      605.494     219.700     640.367
  H      611.928     223.355     643.684
  H      602.895     225.485     645.043
  H      608.576     222.901     643.470
  H      605.677     220.439     643.742
  H      605.879     221.711     641.206
  H      601.255     223.831     644.942
  H      608.311     221.643     641.247
  H      601.683     222.205     644.530
  H      608.013     218.752     642.252
  H      610.159     219.121     643.331
  H      610.323     219.423     641.590
  P      608.375     220.907     638.748
  C      606.109     221.945     638.024
  O      607.128     221.006     637.763
  O      609.405     219.929     638.003
  O      609.015     222.210     639.135
  H      610.065     220.443     637.511
  H      605.493     222.056     637.132
  H      606.541     222.928     638.266
  H      605.484     221.601     638.853
  H      613.687     218.993     641.154
  H      612.367     218.651     642.247
  H      613.870     219.291     642.866

 3  4  5  6  7  8  9  10  11  12  23  26  30  31 0
 6-311+G(2d,p)
 ****
 33  35  36  37  38 0
 6-311+G(2d,p)
 ****
 1  2  13  14  15  16  17  18  19  20  21  22  24  25 0
 3-21G
 ****
 27  28  29  32  34  39  40  41  42  43  44  45  46  47  48  49 0
 3-21G
 ****


