%nproc=1
%NoSave
%Mem=1900MB
#P OB98/GEN NMR

erre ene a

0 1
  C     -947.316    1988.457    1210.951
  O     -948.092    1988.721    1209.778
  P     -948.732    1990.179    1209.659
  C     -951.321    1989.858    1209.868
  O     -950.214    1989.986    1209.018
  C     -952.540    1989.381    1209.099
  O     -952.785    1990.230    1207.989
  C     -952.407    1987.948    1208.528
  O     -952.543    1986.965    1209.525
  C     -953.513    1987.986    1207.479
  O     -954.792    1987.761    1208.124
  C     -953.428    1989.450    1206.944
  N     -953.536    1988.857    1201.847
  C     -954.460    1988.654    1202.790
  N     -954.375    1988.794    1204.155
  C     -953.149    1989.225    1204.456
  C     -952.057    1989.484    1203.602
  C     -952.280    1989.266    1202.260
  N     -951.346    1989.483    1201.283
  N     -950.957    1989.871    1204.322
  C     -951.356    1989.864    1205.583
  N     -952.638    1989.519    1205.704
  O     -947.896    1990.846    1208.471
  O     -948.718    1991.024    1210.914
  H     -954.751    1986.856    1208.516
  H     -947.778    1991.817    1208.620
  H     -955.442    1988.320    1202.445
  H     -950.706    1990.170    1206.431
  H     -954.415    1989.854    1206.746
  H     -953.385    1987.184    1206.701
  H     -951.418    1987.849    1208.010
  H     -953.420    1989.400    1209.805
  H     -951.539    1990.839    1210.331
  H     -951.531    1989.179    1200.326
  H     -950.407    1989.666    1201.582
  H     -951.061    1989.162    1210.699
  P     -951.376    1985.874    1209.644
  C     -952.133    1983.640    1208.619
  O     -952.168    1984.477    1209.727
  O     -950.845    1986.112    1211.141
  O     -950.348    1985.951    1208.557
  H     -951.583    1986.127    1211.773
  H     -952.699    1982.735    1208.832
  H     -951.091    1983.393    1208.377
  H     -952.599    1984.125    1207.757
  H     -946.944    1987.454    1210.914
  H     -947.929    1988.578    1211.819
  H     -946.494    1989.141    1210.997

 3  4  5  6  7  8  9  10  11  12  22  25  29  30  31  32 0
 6-311+G(2d,p)
 ****
 33  36  37 0
 6-311+G(2d,p)
 ****
 1  2  13  14  15  16  17  18  19  20  21  23  24  26 0
 3-21G
 ****
 27  28  34  35  38  39  40  41  42  43  44  45  46  47  48 0
 3-21G
 ****


