%nproc=1
%NoSave
%Mem=1900MB
#P OB98/GEN NMR

erre ene a

0 1
  C     -204.310    -423.077    -135.456
  O     -203.886    -421.861    -136.056
  P     -202.894    -421.933    -137.313
  C     -200.505    -420.925    -137.734
  O     -201.476    -421.379    -136.808
  C     -199.528    -419.962    -137.045
  O     -200.223    -418.719    -136.745
  C     -198.933    -420.487    -135.729
  O     -197.588    -419.995    -135.646
  C     -199.806    -419.826    -134.679
  O     -199.174    -419.756    -133.408
  C     -200.059    -418.460    -135.334
  N     -201.236    -417.767    -134.800
  C     -201.339    -417.641    -133.414
  O     -200.515    -418.097    -132.619
  N     -202.457    -416.992    -132.961
  C     -203.486    -416.521    -133.730
  O     -204.468    -415.959    -133.264
  C     -203.344    -416.722    -135.178
  C     -202.239    -417.317    -135.640
  O     -203.473    -420.756    -138.230
  O     -202.848    -423.276    -137.967
  H     -203.801    -419.999    -137.714
  H     -199.009    -420.668    -133.103
  H     -202.539    -416.856    -131.959
  H     -204.145    -416.379    -135.816
  H     -202.106    -417.483    -136.704
  H     -199.173    -417.821    -135.223
  H     -200.740    -420.393    -134.566
  H     -198.938    -421.581    -135.673
  H     -198.726    -419.718    -137.760
  H     -201.003    -420.400    -138.555
  H     -199.976    -421.783    -138.150
  P     -196.481    -420.934    -134.944
  C     -195.819    -421.423    -132.455
  O     -196.773    -420.926    -133.367
  O     -195.187    -419.993    -135.074
  O     -196.291    -422.273    -135.589
  H     -195.354    -419.082    -134.790
  H     -196.045    -421.028    -131.457
  H     -194.803    -421.125    -132.730
  H     -195.883    -422.519    -132.421
  H     -204.963    -422.862    -134.637
  H     -203.457    -423.615    -135.100
  H     -204.829    -423.670    -136.180

 3  4  5  6  7  8  9  10  11  12  13  24  28  29  30  31  32 0
 6-311+G(2d,p)
 ****
 33  34 0
 6-311+G(2d,p)
 ****
 1  2  14  15  16  17  18  19  20  21  22  23  25  26  27 0
 3-21G
 ****
 35  36  37  38  39  40  41  42  43  44  45 0
 3-21G
 ****


