%nproc=1
%NoSave
%Mem=1900MB
#P OB98/GEN NMR

erre ene a

0 1
  C     -303.110      97.722    -330.764
  O     -302.187      97.113    -331.642
  H     -303.266      98.760    -331.081
  H     -302.717      97.726    -329.744
  H     -304.072      97.199    -330.792
  P     -301.851      95.563    -331.372
  C     -303.791      94.695    -332.872
  O     -303.230      94.765    -331.564
  C     -304.289      93.275    -333.146
  O     -305.390      92.972    -332.258
  C     -304.826      93.061    -334.556
  O     -303.787      92.879    -335.501
  C     -305.691      91.821    -334.358
  O     -304.912      90.619    -334.413
  C     -306.245      92.021    -332.940
  N     -311.134      90.570    -332.815
  C     -309.975      89.871    -332.729
  N     -308.711      90.339    -332.749
  C     -308.704      91.679    -332.871
  C     -309.797      92.522    -332.983
  C     -311.065      91.918    -332.951
  N     -312.240      92.625    -333.075
  N     -309.385      93.833    -333.139
  C     -308.065      93.781    -333.111
  N     -307.614      92.502    -332.952
  O     -301.606      95.521    -329.787
  O     -300.686      95.024    -332.135
  H     -304.227      90.700    -333.717
  H     -300.652      95.605    -329.604
  H     -310.086      88.794    -332.626
  H     -307.403      94.633    -333.219
  H     -306.230      91.097    -332.354
  H     -306.459      91.745    -335.131
  H     -305.472      93.902    -334.848
  H     -303.470      92.569    -332.927
  H     -303.025      94.957    -333.610
  H     -304.617      95.410    -332.941
  H     -313.110      92.123    -333.063
  H     -312.195      93.618    -333.282
  P     -304.130      93.026    -337.058
  C     -303.115      95.427    -337.049
  O     -304.219      94.599    -337.389
  O     -305.650      92.531    -337.148
  O     -303.232      92.253    -337.969
  H     -305.691      91.611    -337.468
  H     -303.327      96.437    -337.331
  H     -302.242      95.088    -337.567
  H     -302.945      95.379    -335.994

 6  7  8  9  10  11  12  13  14  15  25  28  32  33  34  35 0
 6-311+G(2d,p)
 ****
 36  37  40 0
 6-311+G(2d,p)
 ****
 1  2  3  4  5  16  17  18  19  20  21  22  23  24 0
 3-21G
 ****
 26  27  29  30  31  38  39 41  42  43  44  45  46  47  48 0
 3-21G
 ****


