%nproc=1
%NoSave
%Mem=1900MB
#P OB98/GEN NMR

erre ene a

0 1
  C     -828.146    -364.519    1615.523
  O     -827.489    -364.827    1616.739
  H     -827.408    -364.158    1614.812
  H     -828.896    -363.743    1615.685
  H     -828.626    -365.420    1615.115
  P     -828.364    -365.319    1617.996
  C     -826.968    -363.824    1619.570
  O     -827.444    -365.130    1619.293
  C     -825.661    -363.886    1620.357
  O     -825.984    -364.196    1621.739
  C     -824.703    -364.985    1619.846
  O     -823.400    -364.495    1619.544
  C     -824.841    -366.084    1620.880
  O     -823.723    -366.930    1620.988
  C     -825.201    -365.316    1622.144
  N     -825.926    -366.119    1623.152
  C     -825.158    -366.914    1623.999
  O     -823.931    -366.995    1624.011
  N     -825.887    -367.660    1624.914
  C     -827.237    -367.689    1625.027
  O     -827.826    -368.377    1625.854
  C     -827.992    -366.845    1624.083
  C     -827.303    -366.115    1623.187
  O     -828.984    -366.666    1617.837
  O     -829.478    -364.182    1618.166
  H     -823.940    -367.620    1621.655
  H     -830.332    -364.503    1617.829
  H     -825.337    -368.228    1625.549
  H     -829.066    -366.864    1624.138
  H     -827.811    -365.473    1622.484
  H     -824.287    -364.953    1622.642
  H     -825.700    -366.730    1620.601
  H     -825.059    -365.358    1618.868
  H     -825.178    -362.905    1620.347
  H     -827.736    -363.299    1620.158
  H     -826.810    -363.284    1618.622
  P     -822.863    -364.131    1618.090
  C     -820.582    -365.462    1618.294
  O     -821.269    -364.225    1618.112
  O     -823.460    -362.931    1617.447
  O     -823.267    -365.425    1617.190
  H     -823.442    -365.086    1616.296
  H     -819.526    -365.290    1618.275
  H     -820.848    -366.137    1617.507
  H     -820.857    -365.887    1619.237

 6  7  8  9  10  11  12  13  14  15  16  26  31  32  33  34  35 0
 6-311+G(2d,p)
 ****
 36  37 0
 6-311+G(2d,p)
 ****
 1  2  3  4  5  17  18  19  20  21  22  23  24  25 0
 3-21G
 ****
 27  28  29  30  38  39  40  41  42  43  44  45 0
 3-21G
 ****


