%nproc=1
%NoSave
%Mem=1900MB
#P OB98/GEN NMR

erre ene a

0 1
  C       14.472     -78.328      -0.042
  O       14.935     -77.317       0.855
  P       14.013     -76.010       0.987
  C       12.314     -76.816       2.777
  O       13.419     -75.975       2.478
  C       11.122     -75.989       3.264
  O        9.947     -76.794       3.481
  C       11.385     -75.271       4.582
  O       12.143     -74.097       4.351
  C        9.969     -74.985       5.065
  O        9.445     -73.780       4.470
  C        9.187     -76.213       4.570
  N        6.825     -77.237       8.938
  C        6.979     -76.035       8.274
  N        6.400     -74.957       8.844
  N        7.640     -75.903       7.154
  C        8.165     -77.065       6.699
  C        8.057     -78.322       7.251
  C        7.325     -78.452       8.492
  O        7.143     -79.497       9.106
  N        8.672     -79.267       6.470
  C        9.253     -78.561       5.517
  N        8.924     -77.229       5.574
  O       12.747     -76.359       0.073
  O       14.688     -74.758       0.539
  H        9.473     -73.867       3.499
  H       12.755     -75.803      -0.729
  H        6.314     -77.280       9.803
  H        9.898     -78.967       4.752
  H        8.209     -75.927       4.164
  H        9.932     -74.833       6.147
  H        5.874     -74.985       9.704
  H       11.893     -75.943       5.284
  H        6.493     -74.067       8.368
  H       10.889     -75.255       2.482
  H       12.592     -77.545       3.539
  H       12.052     -77.385       1.878
  P       13.341     -73.770       5.364
  C       14.804     -75.905       5.570
  O       14.596     -74.663       4.927
  O       12.851     -74.440       6.735
  O       13.622     -72.316       5.546
  H       13.020     -73.828       7.476
  H       15.301     -76.585       4.874
  H       13.862     -76.357       5.896
  H       15.450     -75.757       6.440
  H       15.163     -79.145      -0.047
  H       14.394     -77.921      -1.029
  H       13.512     -78.675       0.277

 3  4  5  6  7  8  9  10  11  12  23  26  30  31 0
 6-311+G(2d,p)
 ****
 33  35  36  37  38 0
 6-311+G(2d,p)
 ****
 1  2  13  14  15  16  17  18  19  20  21  22  24  25 0
 3-21G
 ****
 27  28  29  32  34  39  40  41  42  43  44  45  46  47  48  49 0
 3-21G
 ****


