%nproc=1
%NoSave
%Mem=1900MB
#P OB98/GEN NMR

erre ene a

0 1
  C       46.222     117.796     407.182
  O       46.490     117.377     405.862
  H       45.281     117.346     407.510
  H       46.121     118.884     407.217
  H       47.021     117.474     407.854
  P       47.850     117.905     405.186
  C       48.625     115.610     404.234
  O       48.114     116.906     403.953
  C       47.497     114.674     404.677
  O       46.565     114.502     403.580
  C       47.988     113.286     405.092
  O       47.301     112.875     406.277
  C       47.622     112.393     403.921
  O       47.442     111.035     404.311
  C       46.375     113.092     403.366
  N       46.168     112.790     401.951
  C       45.716     111.505     401.638
  O       45.525     110.680     402.534
  N       45.545     111.167     400.320
  C       45.856     112.016     399.392
  N       45.685     111.611     398.104
  C       46.379     113.365     399.674
  C       46.505     113.684     400.960
  O       48.965     117.490     406.252
  O       47.861     119.353     404.826
  H       46.629     110.982     404.860
  H       49.826     117.939     406.069
  H       46.641     114.032     398.862
  H       46.885     114.656     401.263
  H       45.479     112.783     403.925
  H       48.429     112.424     403.176
  H       49.061     113.255     405.283
  H       46.940     115.157     405.487
  H       45.333     110.674     397.950
  H       49.370     115.686     405.033
  H       45.922     112.178     397.303
  H       49.103     115.208     403.335
  P       48.061     113.148     407.663
  C       45.880     113.568     408.997
  O       47.048     112.777     408.852
  O       48.165     114.742     407.727
  O       49.396     112.486     407.751
  H       49.050     115.038     407.446
  H       45.305     113.207     409.824
  H       45.296     113.508     408.103
  H       46.158     114.586     409.174

 6  7  8  9  10  11  12  13  14  15  16  26  30  31  32  33  35 0
 6-311+G(2d,p)
 ****
 37  38 0
 6-311+G(2d,p)
 ****
 1  2  3  4  5  17  18  19  20  21  22  23  24  25 0
 3-21G
 ****
 27  28  29  34  36  39  40  41  42  43  44  45  46 0
 3-21G
 ****


