%nproc=1
%NoSave
%Mem=1900MB
#P OB98/GEN NMR

erre ene a

0 1
  C      106.488    -245.162    -419.230
  O      107.017    -246.336    -418.644
  H      106.980    -244.290    -418.785
  H      105.415    -245.101    -419.031
  H      106.671    -245.158    -420.312
  P      106.512    -247.742    -419.232
  C      108.895    -248.510    -419.964
  O      107.768    -248.747    -419.135
  C      109.912    -249.647    -419.800
  O      110.535    -249.513    -418.484
  C      109.275    -251.041    -419.866
  O      110.180    -251.936    -420.525
  C      109.141    -251.432    -418.398
  O      109.076    -252.842    -418.195
  C      110.392    -250.782    -417.802
  N      110.279    -250.576    -416.366
  C      111.057    -251.380    -415.533
  O      111.884    -252.213    -415.940
  N      110.861    -251.220    -414.188
  C      109.956    -250.373    -413.597
  O      109.805    -250.295    -412.387
  C      109.166    -249.544    -414.524
  C      109.359    -249.682    -415.839
  O      106.389    -247.459    -420.806
  O      105.246    -248.273    -418.641
  H      105.494    -247.138    -421.024
  H      109.883    -253.233    -418.584
  H      111.413    -251.811    -413.581
  H      108.441    -248.869    -414.095
  H      108.766    -249.102    -416.549
  H      111.275    -251.379    -418.030
  H      108.234    -250.987    -417.979
  H      108.311    -251.047    -420.381
  H      110.698    -249.530    -420.547
  H      109.363    -247.560    -419.670
  H      108.572    -248.435    -421.014
  P      109.594    -252.860    -421.700
  C      111.841    -252.779    -423.050
  O      110.867    -253.566    -422.380
  O      109.136    -251.758    -422.761
  O      108.512    -253.783    -421.232
  H      109.732    -250.985    -422.811
  H      112.609    -253.415    -423.437
  H      112.269    -252.080    -422.362
  H      111.378    -252.249    -423.856

 6  7  8  9  10  11  12  13  14  15  16  27  31  32  33  34  35 0
 6-311+G(2d,p)
 ****
 36  37 0
 6-311+G(2d,p)
 ****
 1  2  3  4  5  17  18  19  20  21  22  23  24  25 0
 3-21G
 ****
 26  28  29  30  38  39  40  41  42  43  44  45 0
 3-21G
 ****


