%nproc=1
%NoSave
%Mem=1900MB
#P OB98/GEN NMR

erre ene a

0 1
  C     -100.883     622.681     177.269
  O     -100.747     623.084     175.916
  P      -99.824     622.175     174.960
  C     -101.200     621.423     172.890
  O     -100.801     621.132     174.228
  C     -100.958     620.221     171.976
  O      -99.533     619.906     171.985
  C     -101.709     618.942     172.385
  O     -102.051     618.258     171.167
  C     -100.638     618.182     173.155
  O     -100.929     616.803     173.330
  C      -99.414     618.506     172.321
  N      -95.252     615.538     172.501
  C      -96.280     615.594     171.623
  N      -97.354     616.410     171.640
  C      -97.289     617.264     172.682
  C      -96.306     617.325     173.655
  C      -95.242     616.407     173.534
  N      -94.196     616.356     174.434
  N      -96.590     618.312     174.572
  C      -97.726     618.838     174.172
  N      -98.169     618.246     173.020
  O      -99.025     621.253     175.996
  O      -98.903     622.942     174.061
  H     -101.144     616.386     172.468
  H      -98.107     621.122     175.715
  H      -96.250     614.872     170.817
  H      -98.270     619.623     174.673
  H      -99.397     617.933     171.380
  H     -100.550     618.619     174.161
  H     -102.620     619.137     172.953
  H     -101.220     620.497     170.952
  H     -100.615     622.269     172.504
  H      -93.598     615.549     174.377
  H      -94.306     616.857     175.298
  H     -102.255     621.708     172.884
  P     -103.222     617.165     171.210
  C     -105.250     618.739     171.008
  O     -104.469     617.942     171.879
  O     -102.737     616.225     172.418
  O     -103.483     616.441     169.934
  H     -102.525     616.751     173.209
  H     -106.103     619.129     171.573
  H     -105.615     618.138     170.170
  H     -104.656     619.576     170.643
  H     -101.519     623.370     177.784
  H      -99.920     622.667     177.735
  H     -101.313     621.702     177.308

 3  4  5  6  7  8  9  10  11  12  22  25  29  30  31  32 0
 6-311+G(2d,p)
 ****
 33  36  37 0
 6-311+G(2d,p)
 ****
 1  2  13  14  15  16  17  18  19  20  21  23  24  26 0
 3-21G
 ****
 27  28  34  35  38  39  40  41  42  43  44  45  46  47  48 0
 3-21G
 ****


