%nproc=1
%NoSave
%Mem=1900MB
#P OB98/GEN NMR

erre ene a

0 1
  C      312.707    -241.138      48.922
  O      312.797    -240.445      50.151
  H      312.068    -240.560      48.246
  H      312.265    -242.118      49.075
  H      313.697    -241.236      48.464
  P      313.772    -241.068      51.263
  C      313.251    -238.961      52.688
  O      313.375    -240.383      52.657
  C      313.739    -238.399      54.018
  O      312.894    -238.928      55.090
  C      315.196    -238.751      54.356
  O      315.768    -237.639      55.056
  C      315.048    -239.907      55.342
  O      316.203    -240.080      56.156
  C      313.797    -239.455      56.092
  N      313.984    -241.986      60.448
  C      314.704    -240.888      60.017
  N      315.624    -240.379      60.865
  N      314.539    -240.330      58.839
  C      313.567    -240.921      58.092
  C      312.794    -242.007      58.394
  C      312.998    -242.630      59.698
  O      312.409    -243.614      60.126
  N      311.942    -242.315      57.362
  C      312.206    -241.423      56.446
  N      313.193    -240.540      56.834
  O      315.180    -240.406      50.899
  O      313.843    -242.565      51.292
  H      316.981    -240.159      55.557
  H      315.693    -240.998      50.313
  H      314.163    -242.379      61.357
  H      311.713    -241.345      55.480
  H      314.005    -238.658      56.814
  H      314.869    -240.841      54.793
  H      315.771    -240.727      61.807
  H      315.813    -239.001      53.488
  H      316.131    -239.550      60.582
  H      313.590    -237.309      54.015
  H      312.191    -238.695      52.547
  H      313.832    -238.533      51.861
  P      317.238    -237.151      54.631
  C      316.740    -235.025      56.044
  O      317.700    -235.996      55.655
  O      316.955    -236.332      53.277
  O      318.222    -238.251      54.410
  H      317.744    -236.360      52.702
  H      317.190    -234.329      56.721
  H      315.917    -235.510      56.526
  H      316.389    -234.504      55.178

 6  7  8  9  10  11  12  13  14  15  26  29  33  34 0
 6-311+G(2d,p)
 ****
 36  38  39  40  41 0
 6-311+G(2d,p)
 ****
 1  2  3  4  5  16  17  18  19  20  21  22  23  24  25 0
 3-21G
 ****
 27  28  30  31  32  35  37  42  43  44  45  46  47 0
 3-21G
 ****
 48  49 0
 3-21G
 ****


