%nproc=1
%NoSave
%Mem=1900MB
#P OB98/GEN NMR

erre ene a

0 1
  C      -81.740    -157.937      91.132
  O      -83.077    -157.762      90.667
  P      -83.523    -158.508      89.320
  C      -83.537    -156.477      87.728
  O      -84.318    -157.463      88.396
  C      -84.440    -155.526      86.923
  O      -84.996    -156.252      85.795
  C      -85.644    -154.972      87.694
  O      -85.478    -153.763      88.428
  C      -86.610    -154.660      86.552
  O      -86.294    -153.373      85.986
  C      -86.325    -155.754      85.528
  N      -91.232    -157.040      84.870
  C      -90.580    -155.865      84.731
  N      -89.271    -155.605      84.929
  C      -88.614    -156.720      85.289
  C      -89.144    -157.987      85.467
  C      -90.525    -158.130      85.244
  N      -91.192    -159.323      85.394
  N      -88.164    -158.878      85.850
  C      -87.064    -158.154      85.920
  N      -87.280    -156.848      85.578
  O      -84.177    -159.836      89.496
  O      -82.132    -158.661      88.536
  H      -86.242    -152.749      86.733
  H      -82.123    -159.521      88.071
  H      -91.191    -155.018      84.428
  H      -86.095    -158.533      86.214
  H      -86.330    -155.374      84.500
  H      -87.649    -154.607      86.889
  H      -86.077    -155.741      88.345
  H      -83.834    -154.701      86.532
  H      -82.827    -156.965      87.057
  H      -92.190    -159.331      85.258
  H      -90.689    -160.134      85.728
  H      -82.949    -155.956      88.485
  P      -84.620    -153.717      89.780
  C      -86.696    -153.240      91.299
  O      -85.459    -152.796      90.790
  O      -83.195    -153.318      89.613
  O      -84.832    -155.186      90.375
  H      -85.738    -155.371      90.678
  H      -86.995    -152.580      92.119
  H      -86.616    -154.261      91.682
  H      -87.456    -153.194      90.516
  H      -81.600    -157.379      92.034
  H      -81.055    -157.589      90.388
  H      -81.562    -158.975      91.323

 3  4  5  6  7  8  9  10  11  12  22  25  29  30  31  32 0
 6-311+G(2d,p)
 ****
 33  36  37 0
 6-311+G(2d,p)
 ****
 1  2  13  14  15  16  17  18  19  20  21  23  24  26 0
 3-21G
 ****
 27  28  34  35  38  39  40  41  42  43  44  45  46  47  48 0
 3-21G
 ****


