%nproc=1
%NoSave
%Mem=1900MB
#P OB98/GEN NMR

erre ene a

0 1
  C      193.836    -150.060      47.628
  O      194.424    -148.800      47.976
  P      195.012    -148.626      49.457
  C      193.805    -146.408      50.087
  O      195.036    -147.063      49.819
  C      193.962    -144.891      49.940
  O      194.320    -144.519      48.593
  C      192.692    -144.113      50.248
  O      192.525    -143.920      51.645
  C      192.987    -142.786      49.566
  O      193.849    -141.988      50.402
  C      193.736    -143.228      48.304
  N      193.449    -142.565      43.233
  C      194.436    -142.312      44.122
  N      194.431    -142.498      45.459
  C      193.259    -143.016      45.861
  C      192.162    -143.325      45.072
  C      192.285    -143.078      43.696
  N      191.277    -143.339      42.796
  N      191.134    -143.828      45.841
  C      191.608    -143.839      47.070
  N      192.884    -143.349      47.133
  O      196.562    -148.982      49.273
  O      194.365    -149.507      50.473
  H      193.984    -141.138      49.942
  H      196.897    -149.427      50.074
  H      195.352    -141.906      43.703
  H      191.069    -144.191      47.940
  H      194.553    -142.546      48.043
  H      192.085    -142.195      49.387
  H      191.817    -144.588      49.786
  H      194.766    -144.567      50.613
  H      193.461    -146.653      51.095
  H      191.448    -143.163      41.821
  H      190.415    -143.745      43.133
  H      193.042    -146.790      49.401
  P      191.038    -144.061      52.232
  C      191.023    -141.903      53.676
  O      191.059    -143.316      53.649
  O      190.947    -145.615      52.610
  O      189.960    -143.650      51.288
  H      190.026    -145.927      52.522
  H      190.740    -141.579      54.681
  H      190.295    -141.512      52.962
  H      192.016    -141.504      53.444
  H      193.491    -150.025      46.616
  H      193.011    -150.261      48.279
  H      194.567    -150.835      47.729

 3  4  5  6  7  8  9  10  11  12  22  25  29  30  31  32 0
 6-311+G(2d,p)
 ****
 33  36  37 0
 6-311+G(2d,p)
 ****
 1  2  13  14  15  16  17  18  19  20  21  23  24  26 0
 3-21G
 ****
 27  28  34  35  38  39  40  41  42  43  44  45  46  47  48 0
 3-21G
 ****


