%nproc=1
%NoSave
%Mem=1900MB
#P OB98/GEN NMR

erre ene a

0 1
  C     -111.033     120.003     131.616
  O     -112.285     119.480     132.014
  P     -113.095     120.116     133.239
  C     -112.147     118.255     134.725
  O     -112.386     119.650     134.598
  C     -112.316     117.788     136.170
  O     -112.149     116.346     136.233
  C     -111.323     118.419     137.154
  O     -112.027     118.655     138.378
  C     -110.282     117.329     137.339
  O     -109.555     117.473     138.550
  C     -111.165     116.078     137.251
  N     -110.399     114.877     136.947
  C     -110.307     113.915     137.956
  O     -110.743     114.155     139.083
  N     -109.708     112.715     137.663
  C     -109.090     112.568     136.529
  N     -108.570     111.342     136.250
  C     -108.957     113.658     135.542
  C     -109.665     114.757     135.790
  O     -114.572     119.894     133.204
  O     -112.751     121.679     133.171
  H     -113.584     122.188     133.160
  H     -110.175     117.379     139.304
  H     -108.329     113.531     134.672
  H     -109.655     115.603     135.111
  H     -111.707     115.921     138.192
  H     -109.569     117.354     136.507
  H     -110.904     119.362     136.790
  H     -113.344     118.009     136.481
  H     -108.717     110.609     136.933
  H     -111.122     118.056     134.404
  H     -108.364     111.046     135.297
  H     -112.819     117.700     134.059
  P     -111.505     119.827     139.344
  C     -111.415     118.511     141.579
  O     -110.692     119.149     140.548
  O     -112.866     120.276     140.072
  O     -110.874     121.007     138.680
  H     -112.778     121.200     140.369
  H     -110.712     118.168     142.342
  H     -111.954     117.645     141.187
  H     -112.121     119.207     142.042
  H     -110.660     119.442     130.785
  H     -110.343     119.935     132.431
  H     -111.149     121.028     131.331

 3  4  5  6  7  8  9  10  11  12  13  24  27  28  29  30  32 0
 6-311+G(2d,p)
 ****
 34  35 0
 6-311+G(2d,p)
 ****
 1  2  14  15  16  17  18  19  20  21  22  23  25  26 0
 3-21G
 ****
 31  33  36  37  38  39  40  41  42  43  44  45  46 0
 3-21G
 ****


