%nproc=1
%NoSave
%Mem=1900MB
#P OB98/GEN NMR

erre ene a

0 1
  C     -181.968      99.191     164.857
  O     -181.959      98.576     166.135
  P     -183.037      98.978     167.258
  C     -183.788     101.231     168.246
  O     -182.752     100.526     167.573
  C     -183.310     102.633     168.627
  O     -182.187     102.502     169.530
  C     -182.799     103.499     167.472
  O     -183.813     104.193     166.762
  C     -181.941     104.505     168.236
  O     -182.784     105.507     168.841
  C     -181.298     103.631     169.317
  N     -176.254     104.434     169.724
  C     -177.322     105.082     170.254
  N     -178.637     104.818     170.081
  C     -178.803     103.732     169.304
  C     -177.813     102.971     168.698
  C     -176.481     103.359     168.935
  N     -175.396     102.684     168.412
  N     -178.373     101.945     167.953
  C     -179.672     102.087     168.125
  N     -179.983     103.146     168.935
  O     -183.073      98.069     168.435
  O     -184.428      99.025     166.468
  H     -182.197     106.225     169.148
  H     -185.176      99.001     167.099
  H     -177.087     105.931     170.896
  H     -180.426     101.452     167.676
  H     -181.199     104.153     170.279
  H     -181.228     105.032     167.591
  H     -182.157     102.924     166.791
  H     -184.119     103.142     169.166
  H     -184.046     100.682     169.157
  H     -174.481     102.956     168.738
  H     -175.560     101.795     167.962
  H     -184.678     101.278     167.608
  P     -183.691     104.230     165.155
  C     -181.840     105.185     163.569
  O     -182.459     105.208     164.837
  O     -184.963     104.540     164.443
  O     -183.103     102.772     164.813
  H     -182.198     102.611     165.125
  H     -181.140     106.027     163.504
  H     -182.577     105.286     162.773
  H     -181.277     104.254     163.443
  H     -181.176      98.787     164.261
  H     -181.828     100.246     164.968
  H     -182.906      99.004     164.378

 3  4  5  6  7  8  9  10  11  12  22  25  29  30  31  32 0
 6-311+G(2d,p)
 ****
 33  36  37 0
 6-311+G(2d,p)
 ****
 1  2  13  14  15  16  17  18  19  20  21  23  24  26 0
 3-21G
 ****
 27  28  34  35  38  39  40  41  42  43  44  45  46  47  48 0
 3-21G
 ****


