%nproc=1
%NoSave
%Mem=1900MB
#P OB98/GEN NMR

erre ene a

0 1
  C      -94.234    -403.279    -283.591
  O      -94.978    -402.139    -284.033
  P      -94.748    -400.760    -283.243
  C      -92.952    -399.558    -284.726
  O      -94.316    -399.692    -284.360
  C      -92.536    -398.086    -284.671
  O      -91.100    -397.956    -284.791
  C      -93.117    -397.236    -285.793
  O      -94.492    -396.964    -285.578
  C      -92.202    -396.016    -285.728
  O      -92.622    -395.136    -284.676
  C      -90.846    -396.655    -285.372
  N      -89.940    -396.746    -286.511
  C      -89.087    -395.665    -286.702
  O      -89.095    -394.669    -285.978
  N      -88.231    -395.756    -287.765
  C      -88.171    -396.788    -288.657
  O      -87.373    -396.816    -289.586
  C      -89.127    -397.880    -288.434
  C      -89.958    -397.816    -287.389
  O      -93.394    -401.077    -282.452
  O      -95.907    -400.374    -282.387
  H      -92.783    -401.643    -282.958
  H      -91.922    -394.460    -284.585
  H      -87.595    -394.987    -287.913
  H      -89.123    -398.706    -289.139
  H      -90.673    -398.610    -287.212
  H      -90.345    -396.069    -284.591
  H      -92.206    -395.442    -286.658
  H      -92.983    -397.747    -286.754
  H      -92.839    -397.685    -283.696
  H      -92.799    -399.935    -285.744
  H      -92.343    -400.164    -284.052
  P      -95.409    -396.806    -286.889
  C      -94.375    -399.028    -287.798
  O      -95.530    -398.269    -287.539
  O      -94.414    -396.026    -287.873
  O      -96.705    -396.106    -286.634
  H      -93.515    -396.387    -287.863
  H      -94.657    -400.082    -287.898
  H      -93.642    -398.937    -286.991
  H      -93.924    -398.699    -288.741
  H      -94.481    -404.124    -284.199
  H      -94.478    -403.491    -282.571
  H      -93.187    -403.075    -283.672

 3  4  5  6  7  8  9  10  11  12  13  24  28  29  30  31  32 0
 6-311+G(2d,p)
 ****
 33  34 0
 6-311+G(2d,p)
 ****
 1  2  14  15  16  17  18  19  20  21  22  23  25  26  27 0
 3-21G
 ****
 35  36  37  38  39  40  41  42  43  44  45 0
 3-21G
 ****


