%nproc=1
%NoSave
%Mem=1900MB
#P OB98/GEN NMR

erre ene a

0 1
  C      197.234     309.342     674.314
  O      197.226     308.965     675.680
  H      198.033     308.796     673.809
  H      197.419     310.414     674.222
  H      196.280     309.086     673.845
  P      196.130     309.681     676.611
  C      197.449     311.885     676.931
  O      196.935     310.714     677.540
  C      198.229     312.712     677.949
  O      197.345     313.281     678.937
  C      199.299     311.930     678.711
  O      200.494     311.829     677.956
  C      199.459     312.790     679.961
  O      200.317     313.929     679.712
  C      198.020     313.247     680.227
  N      196.837     312.480     685.084
  C      197.560     313.498     684.489
  N      198.095     314.423     685.320
  N      197.753     313.598     683.197
  C      197.197     312.587     682.493
  C      196.442     311.530     682.961
  C      196.209     311.449     684.396
  O      195.527     310.611     684.976
  N      196.028     310.721     681.938
  C      196.557     311.260     680.861
  N      197.288     312.383     681.147
  O      195.694     308.522     677.636
  O      194.947     310.245     675.891
  H      201.115     313.627     679.243
  H      194.765     308.658     677.894
  H      196.713     312.469     686.081
  H      196.441     310.870     679.857
  H      197.972     314.259     680.644
  H      199.912     312.231     680.780
  H      198.268     314.220     686.297
  H      198.919     310.937     679.002
  H      198.644     315.157     684.893
  H      198.687     313.553     677.409
  H      196.622     312.483     676.544
  H      198.105     311.601     676.097
  P      200.852     310.395     677.323
  C      201.827     309.556     679.599
  O      202.060     309.801     678.208
  O      201.560     310.764     675.943
  O      199.687     309.496     677.126
  H      201.580     310.000     675.353
  H      202.717     309.165     680.046
  H      201.033     308.848     679.708
  H      201.557     310.472     680.082

 6  7  8  9  10  11  12  13  14  15  26  29  33  34 0
 6-311+G(2d,p)
 ****
 36  38  39  40  41 0
 6-311+G(2d,p)
 ****
 1  2  3  4  5  16  17  18  19  20  21  22  23  24  25 0
 3-21G
 ****
 27  28  30  31  32  35  37  42  43  44  45  46  47 0
 3-21G
 ****
 48  49 0
 3-21G
 ****


