%nproc=1
%NoSave
%Mem=1900MB
#P OB98/GEN NMR

erre ene a

0 1
  C       73.163    -657.516     722.801
  O       74.454    -657.089     722.424
  H       72.442    -657.175     722.053
  H       72.900    -657.071     723.766
  H       73.116    -658.608     722.870
  P       75.705    -657.793     723.141
  C       76.679    -658.894     721.000
  O       76.060    -659.093     722.265
  C       77.946    -659.744     720.890
  O       77.560    -661.149     720.829
  C       78.797    -659.443     719.642
  O       80.183    -659.562     719.988
  C       78.439    -660.584     718.707
  O       79.447    -660.822     717.734
  C       78.250    -661.721     719.705
  N       78.812    -666.376     717.912
  C       79.696    -665.577     718.621
  N       80.933    -666.058     718.827
  N       79.377    -664.393     719.076
  C       78.098    -664.036     718.813
  C       77.133    -664.734     718.127
  C       77.499    -666.037     717.611
  O       76.773    -666.783     716.963
  N       75.980    -664.001     718.016
  C       76.244    -662.854     718.625
  N       77.523    -662.830     719.121
  O       75.042    -658.404     724.466
  O       76.851    -656.897     723.454
  H       79.574    -660.002     717.213
  H       75.162    -657.780     725.211
  H       79.110    -667.274     717.573
  H       75.570    -662.016     718.709
  H       79.211    -662.126     720.062
  H       77.496    -660.366     718.187
  H       81.244    -666.969     718.540
  H       78.607    -658.454     719.203
  H       81.577    -665.496     719.379
  H       78.540    -659.614     721.801
  H       76.948    -657.837     720.896
  H       75.973    -659.156     720.209
  P       80.679    -658.903     721.367
  C       80.358    -661.150     722.643
  O       80.075    -659.759     722.582
  O       79.849    -657.536     721.434
  O       82.148    -658.657     721.420
  H       80.383    -656.844     721.857
  H       79.886    -661.572     723.505
  H       81.416    -661.296     722.708
  H       79.985    -661.629     721.762

 6  7  8  9  10  11  12  13  14  15  26  29  33  34 0
 6-311+G(2d,p)
 ****
 36  38  39  40  41 0
 6-311+G(2d,p)
 ****
 1  2  3  4  5  16  17  18  19  20  21  22  23  24  25 0
 3-21G
 ****
 27  28  30  31  32  35  37  42  43  44  45  46  47 0
 3-21G
 ****
 48  49 0
 3-21G
 ****


