%nproc=1
%NoSave
%Mem=1900MB
#P OB98/GEN NMR

erre ene a

0 1
  C     -161.491      53.502     -11.297
  O     -162.405      54.408     -11.877
  H     -160.794      53.164     -12.068
  H     -162.020      52.634     -10.895
  H     -160.926      53.994     -10.502
  P     -163.559      54.983     -10.923
  C     -162.574      57.116      -9.815
  O     -162.822      55.722      -9.705
  C     -163.015      57.816      -8.535
  O     -162.628      59.209      -8.577
  C     -164.521      57.820      -8.315
  O     -164.996      56.582      -7.821
  C     -164.662      58.950      -7.308
  O     -164.422      58.492      -5.968
  C     -163.566      59.939      -7.761
  N     -164.121      61.091      -8.464
  C     -164.966      61.904      -7.717
  O     -165.244      61.684      -6.538
  N     -165.520      62.963      -8.382
  C     -165.343      63.261      -9.702
  O     -165.925      64.183     -10.255
  C     -164.426      62.374     -10.439
  C     -163.873      61.340      -9.798
  O     -164.169      53.662     -10.256
  O     -164.601      55.799     -11.613
  H     -165.016      53.435     -10.683
  H     -164.514      59.277      -5.392
  H     -166.145      63.557      -7.860
  H     -164.258      62.585     -11.487
  H     -163.209      60.661     -10.328
  H     -163.006      60.311      -6.894
  H     -165.664      59.377      -7.321
  H     -165.039      58.105      -9.240
  H     -162.502      57.343      -7.686
  H     -163.143      57.522     -10.658
  H     -161.507      57.275     -10.001
  P     -166.569      56.416      -7.556
  C     -166.599      55.116      -9.840
  O     -167.232      56.036      -8.969
  O     -167.006      57.935      -7.320
  O     -166.896      55.484      -6.440
  H     -166.512      58.562      -7.871
  H     -167.191      54.996     -10.723
  H     -166.496      54.171      -9.348
  H     -165.631      55.486     -10.107

 6  7  8  9  10  11  12  13  14  15  16  27  31  32  33  34  35 0
 6-311+G(2d,p)
 ****
 36  37 0
 6-311+G(2d,p)
 ****
 1  2  3  4  5  17  18  19  20  21  22  23  24  25 0
 3-21G
 ****
 26  28  29  30  38  39  40  41  42  43  44  45 0
 3-21G
 ****


