%nproc=1
%NoSave
%Mem=1900MB
#P OB98/GEN NMR

erre ene a

0 1
  C       29.442      79.134    -120.875
  O       30.086      79.909    -119.885
  H       28.429      78.873    -120.556
  H       29.383      79.719    -121.796
  H       30.016      78.224    -121.071
  P       30.176      79.261    -118.421
  C       32.548      78.218    -118.383
  O       31.723      79.308    -117.997
  C       34.016      78.618    -118.310
  O       34.281      79.711    -119.212
  C       34.477      79.104    -116.941
  O       34.720      78.027    -116.048
  C       35.765      79.822    -117.318
  O       36.826      78.862    -117.478
  C       35.413      80.446    -118.676
  N       36.684      85.204    -120.132
  C       37.249      84.001    -120.387
  N       36.865      82.782    -119.959
  C       35.761      82.869    -119.198
  C       35.075      84.022    -118.854
  C       35.582      85.235    -119.349
  N       35.007      86.456    -119.070
  N       33.980      83.722    -118.073
  C       34.002      82.411    -117.945
  N       35.065      81.851    -118.604
  O       29.912      77.702    -118.684
  O       29.219      79.814    -117.417
  H       36.958      78.444    -116.606
  H       29.409      77.335    -117.934
  H       38.129      84.022    -121.025
  H       33.272      81.830    -117.395
  H       36.232      80.335    -119.394
  H       36.089      80.545    -116.566
  H       33.771      79.827    -116.517
  H       34.616      77.759    -118.639
  H       32.307      77.925    -119.410
  H       35.292      87.257    -119.607
  H       34.176      86.468    -118.489
  H       32.349      77.372    -117.717
  P       34.366      78.257    -114.498
  C       32.182      76.857    -114.505
  O       33.526      76.964    -114.052
  O       33.261      79.414    -114.547
  O       35.521      78.627    -113.632
  H       33.258      79.906    -113.703
  H       31.751      75.951    -114.132
  H       32.166      76.846    -115.575
  H       31.618      77.694    -114.149

 6  7  8  9  10  11  12  13  14  15  25  28  32  33  34  35 0
 6-311+G(2d,p)
 ****
 36  39  40 0
 6-311+G(2d,p)
 ****
 1  2  3  4  5  16  17  18  19  20  21  22  23  24 0
 3-21G
 ****
 26  27  29  30  31  37  38  41  42  43  44  45  46  47  48 0
 3-21G
 ****


