%nproc=1
%NoSave
%Mem=1900MB
#P OB98/GEN NMR

erre ene a

0 1
  C     -105.289    -222.462      46.680
  O     -105.615    -223.243      47.815
  H     -106.095    -222.554      45.949
  H     -104.360    -222.822      46.231
  H     -105.186    -221.410      46.963
  P     -104.536    -223.260      49.004
  C     -101.963    -223.545      48.858
  O     -103.233    -223.992      48.413
  C     -100.854    -224.146      47.996
  O     -101.037    -223.790      46.608
  C      -99.449    -223.702      48.379
  O      -98.946    -224.467      49.463
  C      -98.693    -223.957      47.083
  O      -98.333    -225.346      46.944
  C      -99.729    -223.550      46.024
  N      -97.078    -220.331      43.178
  C      -96.943    -221.694      43.341
  N      -95.915    -222.281      42.687
  N      -97.737    -222.418      44.087
  C      -98.699    -221.694      44.703
  C      -98.946    -220.343      44.610
  C      -98.077    -219.557      43.756
  O      -98.182    -218.358      43.523
  N     -100.024    -219.981      45.374
  C     -100.406    -221.102      45.956
  N      -99.622    -222.166      45.593
  O     -105.128    -224.341      50.029
  O     -104.294    -221.948      49.668
  H      -97.770    -225.607      47.691
  H     -104.866    -224.095      50.936
  H      -96.445    -219.830      42.579
  H     -101.236    -221.193      46.643
  H      -99.656    -224.168      45.120
  H      -97.762    -223.387      47.039
  H      -95.105    -221.750      42.391
  H      -99.428    -222.628      48.609
  H      -95.796    -223.276      42.818
  H     -100.944    -225.239      48.064
  H     -101.819    -223.854      49.898
  H     -101.927    -222.450      48.804
  P      -97.725    -223.853      50.308
  C      -95.275    -223.387      49.565
  O      -96.384    -224.275      49.535
  O      -97.692    -224.760      51.625
  O      -97.856    -222.402      50.625
  H      -97.176    -224.316      52.324
  H      -94.465    -223.809      49.008
  H      -94.969    -223.233      50.579
  H      -95.556    -222.450      49.131

 6  7  8  9  10  11  12  13  14  15  26  29  33  34 0
 6-311+G(2d,p)
 ****
 36  38  39  40  41 0
 6-311+G(2d,p)
 ****
 1  2  3  4  5  16  17  18  19  20  21  22  23  24  25 0
 3-21G
 ****
 27  28  30  31  32  35  37  42  43  44  45  46  47 0
 3-21G
 ****
 48  49 0
 3-21G
 ****


