%nproc=1
%NoSave
%Mem=1900MB
#P OB98/GEN NMR

erre ene a

0 1
  C      143.281    -100.137      25.763
  O      144.614     -99.678      25.861
  P      145.111     -98.837      27.128
  C      144.330     -96.700      25.915
  O      144.282     -97.457      27.122
  C      144.637     -95.229      26.223
  O      144.746     -94.498      24.961
  C      143.540     -94.552      27.070
  O      144.020     -93.896      28.246
  C      142.843     -93.654      26.060
  O      142.117     -92.587      26.643
  C      144.001     -93.275      25.129
  N      143.541     -92.722      23.857
  C      143.237     -91.363      23.828
  O      143.336     -90.609      24.792
  N      142.736     -90.886      22.649
  C      142.408     -91.632      21.555
  O      141.874     -91.154      20.563
  C      142.720     -93.071      21.658
  C      143.285     -93.541      22.774
  O      146.587     -98.662      27.241
  O      144.450     -99.613      28.363
  H      141.293     -92.953      27.014
  H      143.477     -99.663      28.345
  H      142.509     -89.905      22.615
  H      142.463     -93.689      20.811
  H      143.523     -94.594      22.879
  H      144.672     -92.548      25.598
  H      142.120     -94.268      25.509
  H      142.823     -95.289      27.454
  H      145.606     -95.190      26.729
  H      143.360     -96.767      25.422
  H      145.075     -97.127      25.236
  P      143.408     -94.078      29.716
  C      142.199     -91.788      29.489
  O      142.106     -93.154      29.835
  O      144.388     -93.935      30.836
  O      142.801     -95.563      29.686
  H      142.823     -95.943      30.583
  H      141.460     -91.230      30.071
  H      141.966     -91.668      28.428
  H      143.190     -91.383      29.699
  H      143.155    -100.674      24.846
  H      142.614     -99.301      25.781
  H      143.065    -100.783      26.588

 3  4  5  6  7  8  9  10  11  12  13  23  28  29  30  31  32 0
 6-311+G(2d,p)
 ****
 33  34 0
 6-311+G(2d,p)
 ****
 1  2  14  15  16  17  18  19  20  21  22  24  25  26  27 0
 3-21G
 ****
 35  36  37  38  39  40  41  42  43  44  45 0
 3-21G
 ****


