%nproc=1
%NoSave
%Mem=1900MB
#P OB98/GEN NMR

erre ene a

0 1
  C     -520.969    -284.845     197.588
  O     -521.083    -284.990     196.185
  P     -521.643    -283.800     195.279
  C     -523.483    -285.083     193.909
  O     -523.158    -284.129     194.895
  C     -524.963    -284.932     193.537
  O     -525.796    -285.285     194.662
  C     -525.296    -283.498     193.136
  O     -525.226    -283.346     191.726
  C     -526.698    -283.314     193.693
  O     -527.671    -283.883     192.804
  C     -526.619    -284.136     195.002
  N     -526.036    -283.495     196.194
  C     -526.499    -283.842     197.461
  O     -527.358    -284.691     197.663
  N     -525.944    -283.147     198.512
  C     -524.968    -282.200     198.409
  O     -524.655    -281.425     199.309
  C     -524.335    -282.078     197.093
  C     -524.906    -282.698     196.060
  O     -520.861    -283.999     193.896
  O     -521.457    -282.427     195.833
  H     -527.416    -284.810     192.650
  H     -520.100    -283.394     193.840
  H     -526.376    -283.298     199.416
  H     -523.466    -281.441     196.999
  H     -524.481    -282.595     195.063
  H     -527.609    -284.509     195.289
  H     -526.948    -282.259     193.786
  H     -524.621    -282.794     193.644
  H     -525.198    -285.624     192.717
  H     -523.283    -286.094     194.284
  H     -522.854    -284.938     193.026
  P     -525.330    -281.883     191.082
  C     -527.289    -282.407     189.516
  O     -526.873    -281.711     190.675
  O     -524.340    -281.581     190.009
  O     -525.148    -280.913     192.347
  H     -524.221    -280.606     192.399
  H     -528.380    -282.356     189.449
  H     -526.987    -283.459     189.567
  H     -526.860    -281.941     188.627
  H     -520.577    -285.747     198.009
  H     -521.934    -284.647     198.006
  H     -520.310    -284.032     197.810

 3  4  5  6  7  8  9  10  11  12  13  23  28  29  30  31  32 0
 6-311+G(2d,p)
 ****
 33  34 0
 6-311+G(2d,p)
 ****
 1  2  14  15  16  17  18  19  20  21  22  24  25  26  27 0
 3-21G
 ****
 35  36  37  38  39  40  41  42  43  44  45 0
 3-21G
 ****


