%nproc=1
%NoSave
%Mem=1900MB
#P OB98/GEN NMR

erre ene a

0 1
  C      -37.764     753.184     -20.655
  O      -37.178     754.443     -20.930
  H      -38.839     753.253     -20.830
  H      -37.598     752.911     -19.607
  H      -37.344     752.418     -21.313
  P      -35.594     754.553     -20.706
  C      -35.742     756.552     -19.056
  O      -35.303     756.088     -20.324
  C      -36.081     758.036     -19.121
  O      -34.897     758.820     -19.404
  C      -37.110     758.411     -20.184
  O      -38.427     758.192     -19.717
  C      -36.798     759.885     -20.396
  O      -37.403     760.705     -19.374
  C      -35.269     759.912     -20.286
  N      -31.668     761.876     -23.233
  C      -32.068     762.230     -21.962
  N      -31.456     763.311     -21.416
  N      -32.997     761.599     -21.291
  C      -33.543     760.568     -21.977
  C      -33.220     760.108     -23.233
  C      -32.175     760.800     -23.953
  O      -31.725     760.492     -25.054
  N      -33.991     759.028     -23.579
  C      -34.797     758.854     -22.550
  N      -34.582     759.779     -21.556
  O      -34.993     754.425     -22.186
  O      -35.001     753.542     -19.782
  H      -37.300     761.642     -19.612
  H      -34.115     754.004     -22.137
  H      -30.938     762.389     -23.694
  H      -35.554     758.084     -22.475
  H      -34.902     760.840     -19.825
  H      -37.183     760.246     -21.350
  H      -31.004     764.005     -21.991
  H      -36.922     757.861     -21.114
  H      -31.760     763.590     -20.491
  H      -36.437     758.343     -18.127
  H      -34.948     756.396     -18.323
  H      -36.628     755.981     -18.751
  P      -39.083     756.745     -19.989
  C      -40.975     757.350     -21.668
  O      -40.627     757.005     -20.330
  O      -39.134     756.086     -18.528
  O      -38.337     755.892     -20.962
  H      -39.258     755.120     -18.602
  H      -42.034     757.491     -21.736
  H      -40.676     756.563     -22.328
  H      -40.476     758.256     -21.944

 6  7  8  9  10  11  12  13  14  15  26  29  33  34 0
 6-311+G(2d,p)
 ****
 36  38  39  40  41 0
 6-311+G(2d,p)
 ****
 1  2  3  4  5  16  17  18  19  20  21  22  23  24  25 0
 3-21G
 ****
 27  28  30  31  32  35  37  42  43  44  45  46  47 0
 3-21G
 ****
 48  49 0
 3-21G
 ****


