%nproc=1
%NoSave
%Mem=1900MB
#P OB98/GEN NMR

erre ene a

0 1
  C     -897.890    -476.497    1610.907
  O     -897.850    -476.992    1612.246
  H     -897.750    -475.416    1610.929
  H     -898.830    -476.728    1610.451
  H     -897.060    -476.925    1610.319
  P     -897.840    -478.571    1612.468
  C     -896.460    -478.844    1614.660
  O     -896.440    -478.919    1613.226
  C     -895.550    -477.695    1615.146
  O     -895.990    -476.447    1614.490
  C     -895.540    -477.469    1616.646
  O     -894.270    -476.929    1617.010
  C     -896.610    -476.394    1616.778
  O     -896.670    -475.813    1618.066
  C     -896.250    -475.507    1615.578
  N     -897.250    -474.526    1615.187
  C     -897.450    -473.428    1616.035
  O     -896.860    -473.265    1617.107
  N     -898.440    -472.552    1615.627
  C     -899.160    -472.618    1614.482
  O     -900.000    -471.766    1614.168
  C     -898.870    -473.804    1613.668
  C     -897.970    -474.671    1614.013
  O     -898.120    -479.414    1611.259
  O     -898.910    -478.801    1613.629
  H     -899.750    -479.126    1613.233
  H     -895.780    -475.533    1618.310
  H     -898.560    -471.775    1616.253
  H     -899.490    -473.852    1612.725
  H     -897.750    -475.552    1613.391
  H     -895.280    -474.978    1615.777
  H     -897.620    -476.845    1616.618
  H     -895.740    -478.391    1617.222
  H     -894.510    -477.869    1614.732
  H     -896.060    -479.790    1615.032
  H     -897.460    -478.685    1614.992
  P     -892.870    -477.613    1616.494
  C     -891.340    -475.596    1615.813
  O     -892.220    -476.630    1615.397
  O     -893.000    -479.023    1616.068
  O     -891.890    -477.470    1617.783
  H     -891.210    -478.180    1617.719
  H     -891.006    -475.046    1614.958
  H     -890.496    -476.025    1616.312
  H     -891.854    -474.938    1616.482

 6  7  8  9  10  11  12  13  14  15  16  27  31  32  33  34  35 0
 6-311+G(2d,p)
 ****
 36  37 0
 6-311+G(2d,p)
 ****
 1  2  3  4  5  17  18  19  20  21  22  23  24  25 0
 3-21G
 ****
 26  28  29  30  38  39  40  41  42  43  44  45 0
 3-21G
 ****


