%nproc=1
%NoSave
%Mem=1900MB
#P OB98/GEN NMR

erre ene a

0 1
  C        5.303     232.370     -94.425
  O        4.948     232.879     -95.714
  P        4.592     234.439     -95.800
  C        6.989     235.007     -96.623
  O        5.958     235.271     -95.681
  C        7.406     236.301     -97.322
  O        7.843     237.302     -96.376
  C        8.575     236.120     -98.283
  O        8.157     235.486     -99.479
  C        9.028     237.566     -98.456
  O        8.176     238.253     -99.388
  C        8.818     238.139     -97.045
  N       12.486     241.180     -95.180
  C       11.398     241.437     -95.939
  N       10.470     240.572     -96.397
  C       10.742     239.322     -95.984
  C       11.809     238.908     -95.205
  C       12.715     239.902     -94.797
  N       13.830     239.636     -94.037
  N       11.755     237.546     -94.991
  C       10.688     237.142     -95.648
  N       10.035     238.182     -96.256
  O        3.850     234.726     -94.412
  O        3.732     234.795     -96.968
  H        8.321     239.213     -99.262
  H        2.898     234.867     -94.565
  H       11.254     242.478     -96.218
  H       10.349     236.116     -95.713
  H        8.413     239.157     -97.066
  H       10.054     237.652     -98.825
  H        9.369     235.532     -97.807
  H        6.535     236.691     -97.864
  H        6.648     234.280     -97.364
  H       14.471     240.393     -93.855
  H       14.059     238.676     -93.821
  H        7.834     234.550     -96.101
  P        8.529     233.939     -99.673
  C        6.054     233.329     -99.365
  O        7.369     233.167     -98.870
  O        9.789     233.786     -98.701
  O        8.735     233.512    -101.085
  H        9.633     234.211     -97.839
  H        5.375     232.728     -98.753
  H        5.994     232.988    -100.401
  H        5.755     234.378     -99.296
  H        5.516     231.324     -94.501
  H        4.490     232.520     -93.746
  H        6.168     232.885     -94.064

 3  4  5  6  7  8  9  10  11  12  22  25  29  30  31  32 0
 6-311+G(2d,p)
 ****
 33  36  37 0
 6-311+G(2d,p)
 ****
 1  2  13  14  15  16  17  18  19  20  21  23  24  26 0
 3-21G
 ****
 27  28  34  35  38  39  40  41  42  43  44  45  46  47  48 0
 3-21G
 ****


