%nproc=1
%NoSave
%Mem=1900MB
#P OB98/GEN NMR

erre ene a

0 1
  C      135.687      75.100       4.352
  O      136.707      74.297       3.794
  H      136.147      75.864       4.984
  H      135.017      74.490       4.964
  H      135.120      75.592       3.557
  P      136.230      73.039       2.917
  C      136.816      71.448       4.899
  O      135.818      71.946       4.021
  C      136.337      70.161       5.559
  O      135.251      70.431       6.475
  C      135.793      69.116       4.589
  O      136.807      68.406       3.899
  C      135.039      68.225       5.560
  O      135.975      67.425       6.307
  C      134.363      69.281       6.461
  N      133.029      69.665       5.991
  C      132.133      70.133       6.959
  O      132.466      70.209       8.140
  N      130.860      70.474       6.569
  C      130.515      70.378       5.323
  N      129.242      70.727       4.999
  C      131.430      69.902       4.270
  C      132.655      69.567       4.667
  O      137.599      72.451       2.335
  O      135.187      73.316       1.887
  H      136.597      68.045       6.729
  H      137.433      71.581       1.896
  H      131.094      69.826       3.245
  H      133.384      69.209       3.949
  H      134.278      68.920       7.494
  H      134.352      67.535       5.072
  H      135.077      69.556       3.885
  H      137.169      69.758       6.150
  H      128.620      70.993       5.752
  H      137.015      72.211       5.661
  H      128.836      70.546       4.090
  H      137.738      71.251       4.346
  P      136.442      67.828       2.446
  C      136.465      65.301       3.073
  O      135.696      66.430       2.676
  O      137.864      67.398       1.858
  O      135.731      68.791       1.546
  H      137.900      67.536       0.891
  H      135.822      64.453       3.183
  H      136.946      65.508       4.006
  H      137.205      65.094       2.328

 6  7  8  9  10  11  12  13  14  15  16  26  30  31  32  33  35 0
 6-311+G(2d,p)
 ****
 37  38 0
 6-311+G(2d,p)
 ****
 1  2  3  4  5  17  18  19  20  21  22  23  24  25 0
 3-21G
 ****
 27  28  29  34  36  39  40  41  42  43  44  45  46 0
 3-21G
 ****


