%nproc=1
%NoSave
%Mem=1900MB
#P OB98/GEN NMR

erre ene a

0 1
  C     -496.972     -55.748    -499.782
  O     -497.852     -54.699    -499.418
  P     -498.684     -53.990    -500.592
  C     -500.955     -54.194    -499.329
  O     -500.187     -54.567    -500.471
  C     -501.753     -55.369    -498.794
  O     -500.842     -56.411    -498.341
  C     -502.637     -55.062    -497.616
  O     -503.867     -54.464    -498.026
  C     -502.876     -56.458    -497.026
  O     -503.916     -57.128    -497.782
  C     -501.515     -57.141    -497.288
  N     -501.088     -58.658    -492.458
  C     -502.136     -58.800    -493.350
  N     -503.233     -59.485    -492.902
  N     -502.130     -58.344    -494.574
  C     -500.984     -57.726    -494.905
  C     -499.874     -57.497    -494.106
  C     -499.912     -57.981    -492.740
  O     -499.045     -57.815    -491.889
  N     -498.892     -56.836    -494.803
  C     -499.355     -56.694    -496.022
  N     -500.656     -57.185    -496.121
  O     -498.131     -54.697    -501.921
  O     -498.551     -52.513    -500.656
  H     -504.725     -56.605    -497.664
  H     -498.243     -54.129    -502.692
  H     -501.147     -59.037    -491.528
  H     -498.826     -56.256    -496.856
  H     -501.654     -58.170    -497.655
  H     -503.182     -56.437    -495.979
  H     -503.234     -59.985    -492.026
  H     -502.112     -54.447    -496.868
  H     -503.987     -59.651    -493.555
  H     -502.337     -55.797    -499.633
  H     -501.648     -53.404    -499.614
  H     -500.267     -53.803    -498.558
  P     -503.906     -52.831    -498.056
  C     -504.615     -52.580    -500.540
  O     -503.575     -52.461    -499.581
  O     -502.547     -52.444    -497.270
  O     -505.120     -52.244    -497.451
  H     -502.645     -51.554    -496.885
  H     -505.590     -52.302    -500.113
  H     -504.667     -53.609    -500.910
  H     -504.417     -51.902    -501.373
  H     -496.487     -56.126    -498.907
  H     -496.237     -55.376    -500.465
  H     -497.528     -56.534    -500.249

 3  4  5  6  7  8  9  10  11  12  23  26  30  31  33  0
 6-311+G(2d,p)
 ****
 35  36  37  38 0
 6-311+G(2d,p)
 ****
 1  2  13  14  15  16  17  18  19  20  21  22  24  25  27  28  29 0
 3-21G
 ****
 32  34  39  40  41  42  43  44  45  46  47  48  49 0
 3-21G
 ****


