%nproc=1
%NoSave
%Mem=1900MB
#P OB98/GEN NMR

erre ene a

0 1
  C      417.630    -389.184    -405.104
  O      417.454    -390.535    -404.740
  H      416.812    -388.889    -405.768
  H      418.580    -389.051    -405.629
  H      417.607    -388.549    -404.211
  P      418.615    -391.194    -403.845
  C      417.261    -391.467    -401.632
  O      418.245    -390.738    -402.347
  C      416.869    -390.710    -400.367
  O      416.164    -389.494    -400.692
  C      415.932    -391.479    -399.428
  O      416.595    -392.468    -398.657
  C      415.430    -390.331    -398.568
  O      416.460    -389.936    -397.639
  C      415.194    -389.244    -399.638
  N      413.832    -389.261    -400.177
  C      412.958    -388.267    -399.712
  O      413.338    -387.431    -398.887
  N      411.655    -388.258    -400.171
  C      411.275    -389.151    -401.029
  N      409.971    -389.092    -401.440
  C      412.156    -390.207    -401.552
  C      413.407    -390.199    -401.095
  O      419.898    -390.296    -404.182
  O      418.820    -392.664    -404.022
  H      416.672    -390.721    -397.098
  H      420.644    -390.528    -403.569
  H      411.787    -390.933    -402.263
  H      414.123    -390.950    -401.437
  H      415.401    -388.247    -399.232
  H      414.557    -390.595    -397.977
  H      415.091    -391.908    -399.977
  H      417.797    -390.420    -399.843
  H      409.376    -388.393    -401.015
  H      417.680    -392.445    -401.377
  H      409.536    -389.825    -401.985
  H      416.366    -391.614    -402.254
  P      416.214    -394.001    -398.949
  C      418.691    -394.540    -398.323
  O      417.597    -394.787    -399.205
  O      415.555    -393.942    -400.399
  O      415.301    -394.626    -397.942
  H      414.846    -394.615    -400.495
  H      419.531    -395.132    -398.622
  H      418.409    -394.799    -397.324
  H      418.954    -393.503    -398.362

 6  7  8  9  10  11  12  13  14  15  16  26  30  31  32  33  35 0
 6-311+G(2d,p)
 ****
 37  38 0
 6-311+G(2d,p)
 ****
 1  2  3  4  5  17  18  19  20  21  22  23  24  25 0
 3-21G
 ****
 27  28  29  34  36  39  40  41  42  43  44  45  46 0
 3-21G
 ****


