%nproc=1
%NoSave
%Mem=1900MB
#P OB98/GEN NMR

erre ene a

0 1
  C      -22.454       5.929      -1.256
  O      -22.367       4.718      -1.986
  P      -23.703       3.860      -2.209
  C      -25.883       4.302      -3.607
  O      -24.748       4.829      -2.946
  C      -27.099       5.204      -3.377
  O      -27.524       5.078      -1.992
  C      -26.844       6.693      -3.644
  O      -28.053       7.240      -4.187
  C      -26.587       7.246      -2.253
  O      -26.808       8.644      -2.170
  C      -27.563       6.402      -1.426
  N      -27.234       6.361      -0.002
  C      -27.558       7.470       0.773
  O      -28.085       8.487       0.327
  N      -27.227       7.384       2.101
  C      -26.560       6.356       2.700
  O      -26.273       6.341       3.890
  C      -26.200       5.234       1.822
  C      -26.556       5.283       0.538
  O      -24.257       3.756      -0.713
  O      -23.472       2.555      -2.889
  H      -24.089       4.557      -0.189
  H      -27.749       8.813      -2.356
  H      -27.487       8.162       2.689
  H      -25.657       4.405       2.258
  H      -26.301       4.469      -0.129
  H      -28.585       6.776      -1.556
  H      -25.547       7.048      -1.970
  H      -26.016       6.859      -4.338
  H      -27.921       4.839      -4.004
  H      -26.101       3.305      -3.216
  H      -25.666       4.204      -4.676
  P      -27.942       8.542      -5.125
  C      -26.965       8.996      -7.510
  O      -27.044       8.146      -6.389
  O      -26.945       9.440      -4.246
  O      -29.239       9.226      -5.409
  H      -26.164       8.951      -3.943
  H      -26.077       8.733      -8.090
  H      -26.889      10.045      -7.212
  H      -27.849       8.858      -8.139
  H      -21.485       6.379      -1.195
  H      -22.815       5.726      -0.270
  H      -23.127       6.597      -1.752

 3  4  5  6  7  8  9  10  11  12  13  24  28  29  30  31  32 0
 6-311+G(2d,p)
 ****
 33  34 0
 6-311+G(2d,p)
 ****
 1  2  14  15  16  17  18  19  20  21  22  23  25  26  27 0
 3-21G
 ****
 35  36  37  38  39  40  41  42  43  44  45 0
 3-21G
 ****


