%nproc=1
%NoSave
%Mem=1900MB
#P OB98/GEN NMR

erre ene a

0 1
  C      860.865     177.056     238.826
  O      862.265     176.990     238.625
  H      860.572     178.112     238.916
  H      860.596     176.540     239.751
  H      860.335     176.611     237.979
  P      862.878     175.552     238.296
  C      864.187     175.482     240.575
  O      863.252     174.862     239.697
  C      863.707     175.382     242.015
  O      862.472     176.104     242.206
  C      863.354     173.961     242.450
  O      864.491     173.149     242.625
  C      862.607     174.252     243.753
  O      863.520     174.526     244.829
  C      861.809     175.525     243.365
  N      860.401     175.240     243.099
  C      859.601     175.029     244.229
  O      860.094     175.101     245.364
  N      858.280     174.724     244.048
  C      857.785     174.653     242.850
  N      856.468     174.340     242.736
  C      858.585     174.898     241.630
  C      859.877     175.168     241.828
  O      864.316     175.916     237.687
  O      862.035     174.685     237.419
  H      863.993     175.336     244.580
  H      864.849     176.490     238.264
  H      858.130     174.829     240.661
  H      860.540     175.366     240.984
  H      861.865     176.266     244.174
  H      861.993     173.405     244.065
  H      862.644     173.505     241.751
  H      864.466     175.825     242.670
  H      855.952     174.158     243.596
  H      864.356     176.521     240.292
  H      855.988     174.213     241.865
  H      865.141     174.953     240.462
  P      864.693     171.824     241.725
  C      864.366     170.519     243.925
  O      864.006     170.629     242.543
  O      866.091     171.567     241.283
  O      863.658     172.043     240.519
  H      862.727     172.136     240.793
  H      863.849     169.691     244.364
  H      864.097     171.419     244.436
  H      865.422     170.364     244.007

 6  7  8  9  10  11  12  13  14  15  16  26  30  31  32  33  35 0
 6-311+G(2d,p)
 ****
 37  38 0
 6-311+G(2d,p)
 ****
 1  2  3  4  5  17  18  19  20  21  22  23  24  25 0
 3-21G
 ****
 27  28  29  34  36  39  40  41  42  43  44  45  46 0
 3-21G
 ****


