%nproc=1
%NoSave
%Mem=1900MB
#P OB98/GEN NMR

erre ene a

0 1
  C      -36.558     -43.576      46.776
  O      -35.495     -42.647      46.832
  H      -36.314     -44.428      47.418
  H      -36.691     -43.935      45.752
  H      -37.484     -43.118      47.134
  P      -35.674     -41.295      45.986
  C      -33.722     -41.897      44.377
  O      -35.107     -41.605      44.517
  C      -33.370     -42.036      42.899
  O      -34.312     -42.930      42.263
  C      -33.447     -40.732      42.113
  O      -32.299     -39.926      42.309
  C      -33.585     -41.254      40.688
  O      -32.311     -41.587      40.123
  C      -34.421     -42.526      40.880
  N      -37.822     -42.869      37.100
  C      -36.515     -43.206      37.173
  N      -35.680     -43.100      38.228
  C      -36.328     -42.593      39.291
  C      -37.653     -42.198      39.364
  C      -38.420     -42.355      38.199
  N      -39.740     -41.980      38.114
  N      -37.937     -41.684      40.614
  C      -36.807     -41.776      41.287
  N      -35.811     -42.324      40.528
  O      -34.568     -40.327      46.623
  O      -37.039     -40.693      46.030
  H      -32.489     -41.984      39.248
  H      -34.979     -39.771      47.312
  H      -36.082     -43.610      36.262
  H      -36.660     -41.455      42.310
  H      -34.051     -43.360      40.270
  H      -34.045     -40.510      40.036
  H      -34.358     -40.182      42.378
  H      -32.370     -42.481      42.818
  H      -33.496     -42.839      44.891
  H      -33.141     -41.092      44.838
  H      -40.223     -42.101      37.238
  H      -40.165     -41.498      38.895
  P      -32.491     -38.342      42.441
  C      -31.715     -37.962      39.989
  O      -32.723     -37.755      40.966
  O      -31.026     -37.826      42.829
  O      -33.514     -37.919      43.441
  H      -30.967     -37.658      43.787
  H      -32.016     -37.514      39.065
  H      -31.568     -39.012      39.845
  H      -30.801     -37.516      40.320

 6  7  8  9  10  11  12  13  14  15  25  28  32  33  34  35 0
 6-311+G(2d,p)
 ****
 36  37  40 0
 6-311+G(2d,p)
 ****
 1  2  3  4  5  16  17  18  19  20  21  22  23  24 0
 3-21G
 ****
 26  27  29  30  31  38  39 41  42  43  44  45  46  47  48 0
 3-21G
 ****


