%nproc=1
%NoSave
%Mem=1900MB
#P OB98/GEN NMR

erre ene a

0 1
  C      334.486    -369.530    -358.820
  O      334.177    -369.247    -357.476
  P      333.095    -370.114    -356.673
  C      331.152    -368.506    -357.214
  O      331.668    -369.827    -357.361
  C      329.708    -368.555    -356.698
  O      329.275    -367.184    -356.394
  C      328.721    -369.144    -357.727
  O      327.915    -370.217    -357.230
  C      327.962    -367.913    -358.212
  O      326.704    -368.211    -358.794
  C      327.951    -367.044    -356.946
  N      327.611    -365.649    -357.226
  C      326.345    -365.398    -357.756
  O      325.505    -366.265    -357.988
  N      326.079    -364.098    -358.082
  C      326.973    -363.061    -358.040
  O      326.694    -361.939    -358.437
  C      328.306    -363.395    -357.507
  C      328.555    -364.650    -357.106
  O      333.105    -369.942    -355.192
  O      333.398    -371.611    -357.158
  H      326.857    -368.841    -359.525
  H      333.316    -371.761    -358.117
  H      325.174    -363.897    -358.462
  H      329.035    -362.596    -357.473
  H      329.530    -364.926    -356.715
  H      327.242    -367.426    -356.198
  H      328.571    -367.427    -358.981
  H      329.256    -369.591    -358.579
  H      329.701    -369.135    -355.773
  H      331.172    -368.009    -358.189
  H      331.795    -367.927    -356.539
  P      327.213    -371.337    -358.136
  C      324.750    -370.821    -357.482
  O      325.733    -370.845    -358.492
  O      327.295    -372.731    -357.596
  O      327.989    -371.224    -359.532
  H      327.989    -372.094    -359.979
  H      323.770    -370.958    -357.938
  H      324.753    -369.845    -356.977
  H      324.907    -371.615    -356.747
  H      335.227    -368.841    -359.168
  H      333.603    -369.436    -359.416
  H      334.864    -370.528    -358.897

 3  4  5  6  7  8  9  10  11  12  13  23  28  29  30  31  32 0
 6-311+G(2d,p)
 ****
 33  34 0
 6-311+G(2d,p)
 ****
 1  2  14  15  16  17  18  19  20  21  22  24  25  26  27 0
 3-21G
 ****
 35  36  37  38  39  40  41  42  43  44  45 0
 3-21G
 ****


