%nproc=1
%NoSave
%Mem=1900MB
#P OB98/GEN NMR

erre ene a

0 1
  C      157.094     153.510     133.944
  O      156.367     154.605     134.526
  P      157.179     155.751     135.313
  C      158.327     157.603     133.862
  O      157.133     157.098     134.443
  C      158.271     159.131     133.784
  O      159.559     159.667     133.402
  C      157.292     159.674     132.754
  O      155.949     159.595     133.204
  C      157.792     161.102     132.584
  O      157.277     161.954     133.623
  C      159.318     160.926     132.731
  N      160.017     160.992     131.450
  C      160.644     162.195     131.150
  O      160.578     163.190     131.875
  N      161.323     162.233     129.962
  C      161.378     161.232     129.038
  O      161.989     161.335     127.978
  C      160.629     160.014     129.374
  C      159.986     159.954     130.542
  O      158.698     155.280     135.112
  O      156.856     155.893     136.763
  H      157.639     161.617     134.467
  H      159.238     155.596     135.861
  H      161.808     163.090     129.737
  H      160.628     159.204     128.652
  H      159.430     159.057     130.809
  H      159.723     161.699     133.396
  H      157.489     161.542     131.631
  H      157.413     159.137     131.807
  H      158.029     159.515     134.788
  H      158.436     157.196     132.849
  H      159.181     157.277     134.465
  P      154.831     159.282     132.092
  C      155.255     156.731     131.724
  O      154.453     157.739     132.300
  O      155.714     159.327     130.754
  O      153.694     160.250     132.123
  H      156.615     159.002     130.904
  H      156.309     157.024     131.691
  H      154.902     156.524     130.709
  H      155.159     155.823     132.322
  H      156.410     152.843     133.462
  H      157.623     152.985     134.712
  H      157.791     153.887     133.225

 3  4  5  6  7  8  9  10  11  12  13  23  28  29  30  31  32 0
 6-311+G(2d,p)
 ****
 33  34 0
 6-311+G(2d,p)
 ****
 1  2  14  15  16  17  18  19  20  21  22  24  25  26 0
 3-21G
 ****
 27  35  36  37  38  39  40  41  42  43  44  45 0
 3-21G
 ****


