%nproc=1
%NoSave
%Mem=1900MB
#P OB98/GEN NMR

erre ene a

0 1
  C     -144.438      41.748     126.069
  O     -143.328      42.100     125.237
  P     -143.427      41.848     123.657
  C     -143.900      43.867     122.125
  O     -142.926      43.170     122.891
  C     -143.395      45.268     121.745
  O     -142.998      46.010     122.939
  C     -142.173      45.220     120.818
  O     -142.184      46.340     119.914
  C     -141.012      45.415     121.775
  O     -139.842      45.875     121.101
  C     -141.621      46.407     122.763
  N     -138.898      49.292     126.011
  C     -139.520      49.590     124.846
  N     -140.244      48.778     124.048
  C     -140.314      47.537     124.567
  C     -139.740      47.087     125.750
  C     -138.998      48.026     126.487
  N     -138.341      47.714     127.657
  N     -140.022      45.752     125.954
  C     -140.710      45.390     124.888
  N     -140.940      46.439     124.040
  O     -144.725      41.288     123.170
  O     -142.223      40.820     123.385
  H     -139.981      46.812     120.875
  H     -142.526      40.134     122.759
  H     -139.416      50.618     124.509
  H     -141.050      44.384     124.680
  H     -141.623      47.430     122.363
  H     -140.773      44.462     122.268
  H     -142.077      44.300     120.233
  H     -144.216      45.828     121.280
  H     -144.829      43.948     122.694
  H     -137.737      48.419     128.056
  H     -138.283      46.746     127.941
  H     -144.147      43.278     121.234
  P     -141.226      46.215     118.622
  C     -142.869      44.765     117.194
  O     -142.204      45.995     117.371
  O     -140.130      45.211     118.791
  O     -140.696      47.717     118.457
  H     -141.395      48.396     118.460
  H     -143.579      44.865     116.367
  H     -143.425      44.487     118.096
  H     -142.147      43.978     116.947
  H     -144.208      41.980     127.088
  H     -144.634      40.700     125.977
  H     -145.302      42.301     125.764

 3  4  5  6  7  8  9  10  11  12  22  25  29  30  31  32 0
 6-311+G(2d,p)
 ****
 33  36  37 0
 6-311+G(2d,p)
 ****
 1  2  13  14  15  16  17  18  19  20  21  23  24  26 0
 3-21G
 ****
 27  28  34  35  38  39  40  41  42  43  44  45  46  47  48 0
 3-21G
 ****


