%nproc=1
%NoSave
%Mem=1900MB
#P OB98/GEN NMR

erre ene a

0 1
  C      200.918     771.300     323.315
  O      199.945     771.926     324.137
  H      201.263     772.022     322.576
  H      200.477     770.444     322.789
  H      201.772     770.970     323.919
  P      199.222     771.047     325.274
  C      199.968     770.132     327.569
  O      200.137     771.148     326.588
  C      200.026     770.722     328.975
  O      201.395     771.157     329.219
  C      199.104     771.954     329.134
  O      198.223     771.851     330.250
  C      200.079     773.137     329.114
  O      199.627     774.287     329.779
  C      201.369     772.530     329.679
  N      202.591     773.226     329.261
  C      202.846     774.465     329.849
  O      202.145     774.991     330.727
  N      203.988     775.087     329.422
  C      204.848     774.644     328.474
  O      205.845     775.264     328.127
  C      204.515     773.355     327.866
  C      203.405     772.710     328.272
  O      198.840     769.655     324.876
  O      197.930     771.912     325.658
  H      198.648     774.346     329.654
  H      197.136     771.532     325.242
  H      204.186     775.981     329.854
  H      205.172     772.970     327.100
  H      203.123     771.741     327.842
  H      201.349     772.517     330.765
  H      200.241     773.416     328.069
  H      198.419     772.036     328.275
  H      199.787     769.948     329.706
  H      200.781     769.403     327.426
  H      199.005     769.621     327.418
  P      196.966     770.867     330.331
  C      197.229     768.268     330.229
  O      197.458     769.471     330.930
  O      196.125     770.804     329.096
  O      196.059     771.501     331.502
  H      195.128     771.316     331.270
  H      197.629     767.448     330.788
  H      197.708     768.316     329.273
  H      196.177     768.128     330.094

 6  7  8  9  10  11  12  13  14  15  16  26  31  32  33  34  35 0
 6-311+G(2d,p)
 ****
 36  37 0
 6-311+G(2d,p)
 ****
 1  2  3  4  5  17  18  19  20  21  22  23  24  25 0
 3-21G
 ****
 27  28  29  30  38  39  40  41  42  43  44  45 0
 3-21G
 ****


