%nproc=1
%NoSave
%Mem=1900MB
#P OB98/GEN NMR

erre ene a

0 1
  C      -57.881     -41.793    -133.697
  O      -58.615     -40.749    -133.088
  H      -56.912     -41.877    -133.199
  H      -57.712     -41.576    -134.755
  H      -58.411     -42.744    -133.594
  P      -60.079     -40.424    -133.649
  C      -59.451     -38.493    -135.243
  O      -59.864     -39.848    -135.130
  C      -59.178     -38.150    -136.703
  O      -58.133     -38.990    -137.230
  C      -60.387     -38.334    -137.619
  O      -61.254     -37.215    -137.527
  C      -59.695     -38.445    -138.968
  O      -59.286     -37.138    -139.414
  C      -58.464     -39.297    -138.613
  N      -58.330     -43.280    -141.745
  C      -58.118     -41.940    -142.004
  N      -57.880     -41.612    -143.293
  N      -58.159     -41.006    -141.089
  C      -58.478     -41.476    -139.862
  C      -58.725     -42.775    -139.484
  C      -58.623     -43.807    -140.494
  O      -58.785     -45.009    -140.303
  N      -59.082     -42.857    -138.162
  C      -59.012     -41.612    -137.733
  N      -58.664     -40.732    -138.730
  O      -60.945     -39.558    -132.784
  O      -60.728     -41.863    -133.902
  H      -58.785     -37.270    -140.240
  H      -61.232     -42.164    -133.124
  H      -58.303     -43.949    -142.496
  H      -59.200     -41.295    -136.715
  H      -57.591     -39.041    -139.224
  H      -60.332     -38.869    -139.743
  H      -58.118     -42.234    -144.055
  H      -60.910     -39.274    -137.418
  H      -57.772     -40.630    -143.512
  H      -58.811     -37.117    -136.743
  H      -58.542     -38.373    -134.645
  H      -60.223     -37.825    -134.847
  P      -62.835     -37.370    -137.766
  C      -62.658     -36.933    -140.307
  O      -62.977     -37.866    -139.284
  O      -63.641     -36.163    -137.427
  O      -63.240     -38.672    -136.936
  H      -63.479     -38.483    -135.996
  H      -62.795     -37.392    -141.264
  H      -61.639     -36.624    -140.203
  H      -63.299     -36.081    -140.225

 6  7  8  9  10  11  12  13  14  15  26  29  33  34 0
 6-311+G(2d,p)
 ****
 36  38  39  40  41 0
 6-311+G(2d,p)
 ****
 1  2  3  4  5  16  17  18  19  20  21  22  23  24  25 0
 3-21G
 ****
 27  28  30  31  32  35  37  42  43  44  45  46  47 0
 3-21G
 ****
 48  49 0
 3-21G
 ****


