%nproc=1
%NoSave
%Mem=1900MB
#P OB98/GEN NMR

erre ene a

0 1
  C     -203.504      49.086     -27.236
  O     -203.388      50.493     -27.166
  H     -204.365      48.775     -26.640
  H     -202.610      48.602     -26.837
  H     -203.666      48.774     -28.272
  P     -202.109      51.197     -27.825
  C     -202.820      50.899     -30.282
  O     -202.600      51.819     -29.221
  C     -203.968      51.369     -31.178
  O     -205.068      51.799     -30.332
  C     -203.590      52.535     -32.099
  O     -204.254      52.352     -33.352
  C     -204.156      53.733     -31.365
  O     -204.396      54.816     -32.244
  C     -205.405      53.150     -30.699
  N     -205.809      53.948     -29.540
  C     -206.619      55.059     -29.799
  O     -206.971      55.316     -30.953
  N     -206.959      55.889     -28.763
  C     -206.485      55.667     -27.576
  N     -206.829      56.551     -26.603
  C     -205.604      54.523     -27.262
  C     -205.311      53.712     -28.280
  O     -200.872      50.365     -27.912
  O     -201.880      52.494     -26.911
  H     -204.821      55.550     -31.749
  H     -201.270      52.283     -26.179
  H     -205.230      54.384     -26.259
  H     -204.662      52.853     -28.144
  H     -206.244      53.110     -31.407
  H     -203.441      54.071     -30.604
  H     -202.511      52.623     -32.257
  H     -204.331      50.511     -31.758
  H     -207.415      57.333     -26.871
  H     -203.073      49.929     -29.841
  H     -206.489      56.506     -25.653
  H     -201.906      50.789     -30.873
  P     -203.517      51.608     -34.569
  C     -202.188      49.530     -33.882
  O     -203.466      50.030     -34.261
  O     -202.207      52.206     -34.964
  O     -204.569      51.711     -35.776
  H     -204.085      51.739     -36.623
  H     -202.256      48.478     -33.699
  H     -201.861      50.026     -32.992
  H     -201.486      49.711     -34.670

 6  7  8  9  10  11  12  13  14  15  16  26  30  31  32  33  35 0
 6-311+G(2d,p)
 ****
 37  38 0
 6-311+G(2d,p)
 ****
 1  2  3  4  5  17  18  19  20  21  22  23  24  25 0
 3-21G
 ****
 27  28  29  34  36  39  40  41  42  43  44  45  46 0
 3-21G
 ****


