%nproc=1
%NoSave
%Mem=1900MB
#P OB98/GEN NMR

erre ene a

0 1
  C     -862.806    -838.960    1274.727
  O     -862.090    -840.111    1275.128
  H     -863.836    -839.044    1275.078
  H     -862.805    -838.850    1273.645
  H     -862.360    -838.067    1275.194
  P     -860.559    -840.269    1274.682
  C     -861.011    -842.797    1274.308
  O     -860.171    -841.816    1274.907
  C     -861.145    -843.995    1275.223
  O     -859.820    -844.431    1275.589
  C     -861.903    -843.706    1276.527
  O     -863.018    -844.564    1276.757
  C     -860.824    -843.616    1277.567
  O     -861.240    -843.901    1278.890
  C     -859.759    -844.565    1277.020
  N     -858.392    -844.268    1277.497
  C     -857.880    -845.066    1278.525
  O     -858.469    -846.020    1279.040
  N     -856.598    -844.772    1278.966
  C     -855.846    -843.746    1278.474
  O     -854.706    -843.514    1278.904
  C     -856.435    -842.912    1277.426
  C     -857.668    -843.200    1276.993
  O     -859.628    -839.280    1275.299
  O     -860.587    -840.120    1273.096
  H     -860.502    -843.645    1279.495
  H     -860.264    -839.241    1272.834
  H     -856.240    -845.359    1279.668
  H     -855.839    -842.090    1277.042
  H     -858.130    -842.626    1276.217
  H     -859.975    -845.601    1277.301
  H     -860.413    -842.585    1277.593
  H     -862.413    -842.696    1276.442
  H     -861.625    -844.822    1274.682
  H     -860.566    -843.081    1273.349
  H     -862.002    -842.346    1274.108
  P     -864.553    -844.147    1276.752
  C     -865.189    -844.733    1279.261
  O     -865.333    -844.992    1277.858
  O     -865.191    -844.052    1275.417
  O     -864.549    -842.659    1277.407
  H     -865.281    -842.178    1276.984
  H     -865.800    -845.415    1279.814
  H     -865.494    -843.729    1279.472
  H     -864.165    -844.861    1279.544

 6  7  8  9  10  11  12  13  14  15  16  26  31  32  33  34  35 0
 6-311+G(2d,p)
 ****
 36  37 0
 6-311+G(2d,p)
 ****
 1  2  3  4  5  17  18  19  20  21  22  23  24  25 0
 3-21G
 ****
 27  28  29  30  38  39  40  41  42  43  44  45 0
 3-21G
 ****


