%nproc=1
%NoSave
%Mem=1900MB
#P OB98/GEN NMR

erre ene a

0 1
  C       16.203      33.756    -113.885
  O       16.281      33.772    -112.474
  H       17.168      33.442    -114.288
  H       15.974      34.757    -114.258
  H       15.434      33.053    -114.217
  P       14.932      34.097    -111.672
  C       15.820      36.212    -110.440
  O       15.377      34.868    -110.335
  C       17.062      36.418    -109.572
  O       16.688      36.241    -108.179
  C       18.186      35.420    -109.876
  O       19.446      36.083    -109.743
  C       18.033      34.380    -108.781
  O       19.223      33.652    -108.512
  C       17.574      35.255    -107.610
  N       16.895      34.489    -106.568
  C       17.672      34.003    -105.521
  O       18.870      34.235    -105.371
  N       17.013      33.211    -104.614
  C       15.700      32.850    -104.664
  O       15.173      32.119    -103.834
  C       14.933      33.388    -105.798
  C       15.557      34.168    -106.684
  O       14.471      32.664    -111.128
  O       13.865      34.784    -112.454
  H       13.880      32.229    -111.773
  H       19.092      33.156    -107.677
  H       17.562      32.853    -103.848
  H       13.889      33.115    -105.876
  H       15.024      34.568    -107.539
  H       18.428      35.792    -107.178
  H       17.252      33.661    -109.054
  H       18.105      34.979    -110.870
  H       17.408      37.452    -109.685
  H       15.025      36.880    -110.095
  H       16.047      36.437    -111.487
  P       20.029      36.830    -111.040
  C       22.052      35.192    -111.277
  O       21.604      36.518    -111.056
  O       19.930      38.360    -110.594
  O       19.293      36.483    -112.291
  H       20.123      38.503    -109.651
  H       23.122      35.169    -111.255
  H       21.707      34.854    -112.232
  H       21.665      34.553    -110.511

 6  7  8  9  10  11  12  13  14  15  16  27  31  32  33  34  35 0
 6-311+G(2d,p)
 ****
 36  37 0
 6-311+G(2d,p)
 ****
 1  2  3  4  5  17  18  19  20  21  22  23  24  25 0
 3-21G
 ****
 26  28  29  30  38  39  40  41  42  43  44  45 0
 3-21G
 ****


