%nproc=1
%NoSave
%Mem=1900MB
#P OB98/GEN NMR

erre ene a

0 1
  C      144.104    -492.239    -135.575
  O      145.269    -492.289    -136.374
  P      145.695    -493.663    -137.079
  C      144.053    -493.345    -139.086
  O      144.449    -494.133    -137.979
  C      144.223    -494.119    -140.401
  O      143.334    -495.259    -140.361
  C      143.842    -493.335    -141.650
  O      144.417    -493.980    -142.787
  C      142.335    -493.513    -141.685
  O      141.788    -493.267    -142.983
  C      142.156    -494.959    -141.147
  N      140.940    -495.082    -140.323
  C      139.972    -495.983    -140.759
  O      140.129    -496.712    -141.737
  N      138.778    -495.958    -140.082
  C      138.470    -495.096    -139.066
  O      137.332    -494.873    -138.685
  C      139.600    -494.343    -138.504
  C      140.762    -494.349    -139.162
  O      145.705    -494.697    -135.867
  O      147.007    -493.623    -137.792
  H      142.247    -492.471    -143.334
  H      146.612    -494.807    -135.518
  H      138.029    -496.508    -140.490
  H      139.431    -493.762    -137.602
  H      141.604    -493.758    -138.798
  H      142.082    -495.679    -141.972
  H      141.876    -492.794    -140.988
  H      144.129    -492.277    -141.630
  H      145.250    -494.492    -140.473
  H      144.642    -492.425    -139.098
  H      143.006    -493.042    -138.979
  P      144.870    -493.066    -144.027
  C      147.369    -493.340    -143.479
  O      146.290    -492.434    -143.627
  O      143.854    -492.091    -144.526
  O      145.263    -494.143    -145.144
  H      145.267    -493.719    -146.026
  H      148.302    -492.826    -143.731
  H      147.253    -494.207    -144.145
  H      147.415    -493.679    -142.446
  H      143.978    -491.249    -135.189
  H      144.199    -492.929    -134.763
  H      143.253    -492.501    -136.168

 3  4  5  6  7  8  9  10  11  12  13  23  28  29  30  31  32 0
 6-311+G(2d,p)
 ****
 33  34 0
 6-311+G(2d,p)
 ****
 1  2  14  15  16  17  18  19  20  21  22  24  25  26  27 0
 3-21G
 ****
 35  36  37  38  39  40  41  42  43  44  45 0
 3-21G
 ****


