%nproc=1
%NoSave
%Mem=1900MB
#P OB98/GEN NMR

erre ene a

0 1
  C     -306.564     -57.726     306.301
  O     -306.867     -57.160     307.569
  P     -306.756     -55.563     307.710
  C     -304.770     -53.925     308.034
  O     -305.227     -55.272     308.102
  C     -304.284     -53.458     309.398
  O     -302.982     -54.008     309.670
  C     -304.124     -51.949     309.529
  O     -305.362     -51.304     309.785
  C     -303.201     -51.857     310.738
  O     -303.971     -51.980     311.949
  C     -302.291     -53.085     310.555
  N     -297.330     -52.631     311.460
  C     -298.359     -52.991     312.313
  N     -298.008     -53.296     313.579
  N     -299.615     -53.040     311.951
  C     -299.812     -52.745     310.646
  C     -298.875     -52.374     309.706
  C     -297.498     -52.269     310.127
  O     -296.555     -51.892     309.436
  N     -299.459     -52.166     308.480
  C     -300.730     -52.449     308.669
  N     -301.003     -52.778     309.975
  O     -307.545     -55.266     309.069
  O     -307.307     -54.787     306.564
  H     -304.736     -51.382     311.864
  H     -307.889     -54.351     309.061
  H     -296.380     -52.622     311.782
  H     -301.486     -52.431     307.891
  H     -302.133     -53.610     311.502
  H     -302.664     -50.904     310.796
  H     -297.049     -53.408     313.877
  H     -303.625     -51.527     308.653
  H     -298.743     -53.600     314.208
  H     -304.980     -53.839     310.160
  H     -305.596     -53.281     307.709
  H     -303.965     -53.865     307.297
  P     -305.430     -49.730     309.479
  C     -303.910     -47.717     310.108
  O     -304.198     -49.091     310.283
  O     -306.716     -49.250     310.297
  O     -305.518     -49.389     308.030
  H     -307.098     -48.445     309.889
  H     -304.821     -47.128     309.986
  H     -303.273     -47.588     309.230
  H     -303.376     -47.355     310.993
  H     -306.678     -58.789     306.349
  H     -305.556     -57.487     306.035
  H     -307.231     -57.329     305.565

 3  4  5  6  7  8  9  10  11  12  23  26  30  31  33  0
 6-311+G(2d,p)
 ****
 35  36  37  38 0
 6-311+G(2d,p)
 ****
 1  2  13  14  15  16  17  18  19  20  21  22  24  25  27  28  29 0
 3-21G
 ****
 32  34  39  40  41  42  43  44  45  46  47  48  49 0
 3-21G
 ****


