%nproc=1
%NoSave
%Mem=1900MB
#P OB98/GEN NMR

erre ene a

0 1
  C      -36.684    -201.829      37.393
  O      -35.680    -201.213      36.615
  H      -36.203    -202.440      38.161
  H      -37.307    -202.476      36.771
  H      -37.303    -201.073      37.884
  P      -36.118    -200.305      35.368
  C      -35.250    -202.212      33.861
  O      -36.306    -201.293      34.118
  C      -35.426    -202.847      32.476
  O      -36.585    -203.713      32.533
  C      -35.656    -201.801      31.375
  O      -34.762    -201.947      30.275
  C      -37.152    -201.910      31.102
  O      -37.538    -201.512      29.802
  C      -37.465    -203.369      31.446
  N      -38.860    -203.602      31.819
  C      -39.746    -203.938      30.800
  O      -39.446    -204.068      29.616
  N      -41.046    -204.141      31.189
  C      -41.533    -204.026      32.457
  O      -42.709    -204.222      32.744
  C      -40.554    -203.640      33.485
  C      -39.283    -203.447      33.125
  O      -35.255    -199.118      35.102
  O      -37.621    -199.873      35.713
  H      -36.996    -202.031      29.169
  H      -37.635    -198.939      35.996
  H      -41.695    -204.401      30.463
  H      -40.910    -203.527      34.500
  H      -38.534    -203.163      33.858
  H      -37.236    -204.021      30.602
  H      -37.680    -201.256      31.807
  H      -35.437    -200.793      31.745
  H      -34.553    -203.474      32.262
  H      -35.277    -202.982      34.638
  H      -34.288    -201.689      33.910
  P      -33.340    -201.236      30.149
  C      -33.754    -199.208      28.526
  O      -33.570    -199.682      29.853
  O      -32.332    -201.939      29.302
  O      -32.780    -201.231      31.662
  H      -31.807    -201.306      31.594
  H      -33.891    -198.147      28.542
  H      -34.618    -199.673      28.098
  H      -32.892    -199.448      27.939

 6  7  8  9  10  11  12  13  14  15  16  26  31  32  33  34  35 0
 6-311+G(2d,p)
 ****
 36  37 0
 6-311+G(2d,p)
 ****
 1  2  3  4  5  17  18  19  20  21  22  23  24  25 0
 3-21G
 ****
 27  28  29  30  38  39  40  41  42  43  44  45 0
 3-21G
 ****


