%nproc=1
%NoSave
%Mem=1900MB
#P OB98/GEN NMR

erre ene a

0 1
  C      246.997    -200.829    -354.896
  O      246.694    -201.304    -353.598
  H      247.103    -199.743    -354.856
  H      246.189    -201.082    -355.586
  H      247.936    -201.264    -355.248
  P      246.518    -202.890    -353.434
  C      244.828    -202.278    -351.557
  O      245.130    -203.114    -352.665
  C      243.319    -202.244    -351.332
  O      242.677    -201.555    -352.430
  C      242.672    -203.622    -351.288
  O      242.859    -204.266    -350.044
  C      241.222    -203.276    -351.582
  O      240.534    -202.852    -350.399
  C      241.349    -202.110    -352.570
  N      237.863    -203.874    -355.855
  C      237.769    -203.463    -354.573
  N      238.744    -202.994    -353.768
  C      239.916    -202.944    -354.426
  C      240.164    -203.326    -355.734
  C      239.068    -203.810    -356.468
  N      239.170    -204.250    -357.766
  N      241.501    -203.164    -356.040
  C      242.048    -202.685    -354.941
  N      241.128    -202.532    -353.941
  O      247.624    -203.266    -352.340
  O      246.686    -203.677    -354.689
  H      239.617    -202.656    -350.670
  H      248.412    -203.631    -352.786
  H      236.777    -203.532    -354.130
  H      243.098    -202.444    -354.817
  H      240.634    -201.306    -352.359
  H      240.690    -204.138    -351.985
  H      243.059    -204.246    -352.104
  H      243.112    -201.688    -350.409
  H      245.184    -201.261    -351.761
  H      245.342    -202.663    -350.670
  H      238.359    -204.649    -358.209
  H      240.088    -204.313    -358.194
  P      242.506    -205.828    -349.946
  C      243.425    -205.951    -347.509
  O      242.335    -206.182    -348.391
  O      243.871    -206.555    -350.357
  O      241.364    -206.258    -350.806
  H      243.672    -207.372    -350.856
  H      243.148    -206.238    -346.516
  H      243.680    -204.912    -347.522
  H      244.268    -206.529    -347.825

 6  7  8  9  10  11  12  13  14  15  25  28  32  33  34  35 0
 6-311+G(2d,p)
 ****
 36  37  40 0
 6-311+G(2d,p)
 ****
 1  2  3  4  5  16  17  18  19  20  21  22  23  24 0
 3-21G
 ****
 26  27  29  30  31  38  39 41  42  43  44  45  46  47  48 0
 3-21G
 ****


