%nproc=1
%NoSave
%Mem=1900MB
#P OB98/GEN NMR

erre ene a

0 1
  C      531.253     600.489    1979.671
  O      531.600     600.889    1978.331
  P      531.691     602.396    1977.822
  C      534.118     602.166    1976.812
  O      533.245     602.789    1977.734
  C      535.581     602.497    1977.118
  O      535.701     603.966    1977.212
  C      536.065     601.930    1978.463
  O      537.379     601.379    1978.404
  C      535.832     603.068    1979.430
  O      536.590     602.977    1980.635
  C      536.123     604.295    1978.548
  N      536.369     608.516    1981.453
  C      537.238     607.432    1981.380
  N      538.305     607.456    1982.215
  N      537.060     606.418    1980.597
  C      535.924     606.454    1979.892
  C      534.966     607.464    1979.852
  C      535.197     608.608    1980.694
  O      534.476     609.595    1980.776
  N      533.935     607.148    1978.987
  C      534.271     605.986    1978.514
  N      535.448     605.498    1979.007
  O      530.773     603.381    1978.472
  O      531.262     602.279    1976.267
  H      537.518     602.785    1980.364
  H      530.829     603.127    1976.039
  H      536.575     609.288    1982.051
  H      533.665     605.410    1977.779
  H      537.182     604.535    1978.522
  H      534.775     603.068    1979.716
  H      538.442     608.176    1982.925
  H      535.454     601.068    1978.771
  H      538.810     606.566    1982.332
  H      536.207     602.159    1976.269
  H      533.834     602.517    1975.831
  H      533.951     601.081    1976.820
  P      537.821     599.849    1978.147
  C      539.800     600.264    1976.534
  O      538.456     599.760    1976.679
  O      536.429     599.049    1977.967
  O      538.666     599.254    1979.239
  H      536.384     598.373    1978.669
  H      540.003     600.385    1975.458
  H      540.490     599.551    1976.962
  H      539.876     601.235    1977.024
  H      531.267     599.421    1979.739
  H      530.274     600.849    1979.908
  H      531.961     600.900    1980.360

 3  4  5  6  7  8  9  10  11  12  23  26  30  31 0
 6-311+G(2d,p)
 ****
 33  35  36  37  38 0
 6-311+G(2d,p)
 ****
 1  2  13  14  15  16  17  18  19  20  21  22  24  25 0
 3-21G
 ****
 27  28  29  32  34  39  40  41  42  43  44  45  46  47  48  49 0
 3-21G
 ****


