%nproc=1
%NoSave
%Mem=1900MB
#P OB98/GEN NMR

erre ene a

0 1
  C      157.351    -387.507      16.850
  O      158.646    -387.031      17.186
  P      158.781    -385.497      17.635
  C      158.147    -384.153      19.754
  O      157.942    -385.341      18.997
  C      156.855    -383.712      20.432
  O      156.065    -382.947      19.477
  C      155.975    -384.868      20.933
  O      155.469    -384.544      22.238
  C      154.800    -384.866      19.975
  O      153.629    -385.428      20.562
  C      154.700    -383.373      19.662
  N      150.111    -381.952      18.108
  C      150.651    -381.948      19.372
  N      149.833    -381.554      20.375
  N      151.884    -382.290      19.637
  C      152.596    -382.627      18.537
  C      152.174    -382.665      17.231
  C      150.790    -382.337      16.958
  O      150.227    -382.412      15.865
  N      153.194    -383.039      16.387
  C      154.226    -383.229      17.181
  N      153.904    -383.041      18.500
  O      157.889    -384.729      16.546
  O      160.174    -384.960      17.664
  H      153.555    -385.062      21.465
  H      158.430    -384.047      16.102
  H      149.150    -381.692      17.959
  H      155.212    -383.540      16.855
  H      154.285    -382.827      20.519
  H      155.060    -385.448      19.083
  H      148.888    -381.242      20.241
  H      156.482    -385.838      20.965
  H      150.219    -381.520      21.313
  H      157.108    -383.031      21.253
  H      158.498    -383.360      19.091
  H      158.919    -384.346      20.509
  P      155.303    -385.775      23.257
  C      157.001    -387.330      24.485
  O      156.780    -386.367      23.468
  O      154.573    -386.889      22.373
  O      154.546    -385.440      24.499
  H      154.078    -387.511      22.947
  H      156.064    -387.692      24.918
  H      157.608    -386.885      25.270
  H      157.544    -388.178      24.046
  H      157.411    -388.538      16.572
  H      156.964    -386.939      16.030
  H      156.702    -387.403      17.695

 3  4  5  6  7  8  9  10  11  12  23  26  30  31  33  0
 6-311+G(2d,p)
 ****
 35  36  37  38 0
 6-311+G(2d,p)
 ****
 1  2  13  14  15  16  17  18  19  20  21  22  24  25  27  28  29 0
 3-21G
 ****
 32  34  39  40  41  42  43  44  45  46  47  48  49 0
 3-21G
 ****


