%nproc=1
%NoSave
%Mem=1900MB
#P OB98/GEN NMR

erre ene a

0 1
  C     1045.318     868.400    -245.872
  O     1044.634     867.221    -246.232
  P     1043.024     867.226    -246.084
  C     1042.832     865.173    -247.651
  O     1042.544     865.732    -246.381
  C     1041.975     863.917    -247.893
  O     1042.443     862.836    -247.054
  C     1040.458     864.085    -247.602
  O     1039.732     863.270    -248.521
  C     1040.319     863.553    -246.186
  O     1038.981     863.194    -245.863
  C     1041.317     862.402    -246.236
  N     1040.031     860.231    -241.851
  C     1039.248     860.495    -242.950
  N     1037.979     860.117    -242.885
  N     1039.687     861.141    -244.010
  C     1041.005     861.451    -243.920
  C     1041.872     861.252    -242.874
  C     1041.406     860.532    -241.726
  O     1042.058     860.189    -240.755
  N     1043.134     861.809    -243.134
  C     1043.012     862.259    -244.375
  N     1041.765     862.040    -244.892
  O     1042.549     868.059    -247.349
  O     1042.505     867.770    -244.774
  H     1038.968     862.816    -244.962
  H     1042.422     869.022    -247.112
  H     1039.676     859.729    -241.070
  H     1043.804     862.751    -244.905
  H     1040.899     861.509    -246.695
  H     1040.647     864.307    -245.472
  H     1037.574     859.602    -242.129
  H     1040.140     865.134    -247.696
  H     1037.373     860.305    -243.697
  H     1042.123     863.603    -248.941
  H     1043.863     864.848    -247.698
  H     1042.670     865.936    -248.460
  P     1038.656     863.954    -249.458
  C     1039.567     862.835    -251.598
  O     1038.461     863.028    -250.750
  O     1039.389     865.244    -250.032
  O     1037.375     864.354    -248.765
  H     1038.759     865.958    -250.176
  H     1039.443     861.903    -252.179
  H     1040.504     862.767    -251.052
  H     1039.639     863.668    -252.290
  H     1046.369     868.261    -246.017
  H     1045.127     868.623    -244.843
  H     1044.978     869.210    -246.482

 3  4  5  6  7  8  9  10  11  12  23  26  30  31 0
 6-311+G(2d,p)
 ****
 33  35  36  37  38 0
 6-311+G(2d,p)
 ****
 1  2  13  14  15  16  17  18  19  20  21  22  24  25 0
 3-21G
 ****
 27  28  29  32  34  39  40  41  42  43  44  45  46  47  48  49 0
 3-21G
 ****


