%nproc=1
%NoSave
%Mem=1900MB
#P OB98/GEN NMR

erre ene a

0 1
  C     -470.536     435.309     765.429
  O     -471.834     435.859     765.212
  P     -472.280     436.289     763.740
  C     -474.521     436.364     762.457
  O     -473.768     435.714     763.472
  C     -475.998     436.008     762.586
  O     -476.252     434.638     762.209
  C     -476.533     436.124     764.024
  O     -476.676     437.476     764.427
  C     -477.854     435.338     763.897
  O     -478.887     436.150     763.337
  C     -477.452     434.231     762.925
  N     -477.229     432.940     763.600
  C     -478.385     432.258     764.007
  O     -479.501     432.757     763.836
  N     -478.226     431.012     764.563
  C     -477.056     430.556     764.838
  N     -476.954     429.275     765.335
  C     -475.807     431.329     764.572
  C     -475.960     432.481     763.954
  O     -471.287     435.976     762.650
  O     -472.539     437.864     763.830
  H     -472.056     438.316     763.116
  H     -479.062     436.863     763.992
  H     -474.840     430.910     764.889
  H     -475.125     433.114     763.700
  H     -478.217     434.086     762.169
  H     -478.206     434.984     764.893
  H     -475.862     435.599     764.716
  H     -476.575     436.667     761.910
  H     -477.820     428.764     765.479
  H     -474.150     436.013     761.483
  H     -476.085     428.741     765.280
  H     -474.367     437.432     762.529
  P     -477.128     437.718     765.956
  C     -476.927     439.674     767.663
  O     -476.503     439.113     766.430
  O     -476.269     436.628     766.784
  O     -478.573     437.577     766.226
  H     -476.800     436.281     767.520
  H     -476.186     440.389     767.997
  H     -477.041     438.915     768.433
  H     -477.891     440.173     767.528
  H     -470.414     435.082     766.467
  H     -469.793     436.019     765.130
  H     -470.427     434.414     764.853

 3  4  5  6  7  8  9  10  11  12  13  24  27  28  29  30  32 0
 6-311+G(2d,p)
 ****
 34  35 0
 6-311+G(2d,p)
 ****
 1  2  14  15  16  17  18  19  20  21  22  23  25  26 0
 3-21G
 ****
 31  33  36  37  38  39  40  41  42  43  44  45  46 0
 3-21G
 ****


