%nproc=1
%NoSave
%Mem=1900MB
#P OB98/GEN NMR

erre ene a

0 1
  C      -23.771     415.138      95.168
  O      -23.938     415.229      93.747
  P      -22.710     415.439      92.738
  C      -23.888     413.609      91.353
  O      -22.648     414.208      91.715
  C      -23.755     412.751      90.091
  O      -23.512     413.576      88.939
  C      -22.609     411.747      90.120
  O      -22.924     410.632      90.934
  C      -22.459     411.432      88.633
  O      -23.416     410.449      88.215
  C      -22.757     412.800      87.988
  N      -21.549     413.495      87.568
  C      -21.137     413.291      86.249
  O      -21.747     412.509      85.517
  N      -20.023     413.958      85.796
  C      -19.344     414.703      86.611
  N      -18.257     415.344      86.105
  C      -19.692     414.875      88.033
  C      -20.798     414.250      88.437
  O      -21.410     415.734      93.415
  O      -23.143     416.671      91.809
  H      -23.081     409.586      88.525
  H      -22.345     417.159      91.536
  H      -19.084     415.481      88.686
  H      -21.132     414.331      89.465
  H      -23.410     412.674      87.115
  H      -21.467     411.043      88.387
  H      -21.697     412.236      90.481
  H      -24.712     412.232      89.937
  H      -18.047     415.212      85.125
  H      -24.614     414.409      91.170
  H      -17.661     415.949      86.652
  H      -24.244     413.000      92.190
  P      -22.016     410.298      92.209
  C      -24.084     410.230      93.731
  O      -22.806     410.799      93.510
  O      -20.593     410.734      92.122
  O      -22.116     408.701      92.335
  H      -21.282     408.361      92.705
  H      -24.329     410.323      94.791
  H      -24.096     409.171      93.453
  H      -24.828     410.771      93.142
  H      -24.726     414.999      95.631
  H      -23.325     416.039      95.533
  H      -23.138     414.307      95.400

 3  4  5  6  7  8  9  10  11  12  13  23  27  28  29  30  32 0
 6-311+G(2d,p)
 ****
 34  35 0
 6-311+G(2d,p)
 ****
 1  2  14  15  16  17  18  19  20  21  22  24  25  26 0
 3-21G
 ****
 31  33  36  37  38  39  40  41  42  43  44  45  46 0
 3-21G
 ****


