%nproc=1
%NoSave
%Mem=1900MB
#P OB98/GEN NMR

erre ene a

0 1
  C      526.534    -354.503     314.371
  O      527.196    -353.555     315.188
  H      525.663    -354.879     314.912
  H      527.196    -355.347     314.142
  H      526.195    -354.032     313.443
  P      528.563    -352.906     314.653
  C      527.753    -350.696     315.743
  O      528.830    -351.616     315.566
  C      527.848    -350.012     317.103
  O      527.749    -350.990     318.166
  C      529.163    -349.277     317.347
  O      529.193    -348.058     316.624
  C      529.134    -349.135     318.862
  O      528.266    -348.065     319.267
  C      528.547    -350.513     319.280
  N      529.563    -351.484     319.651
  C      530.267    -351.226     320.838
  O      530.026    -350.202     321.483
  N      531.235    -352.120     321.236
  C      531.457    -353.194     320.544
  N      532.422    -354.035     320.995
  C      530.708    -353.528     319.312
  C      529.796    -352.642     318.918
  O      528.639    -352.650     313.180
  O      529.691    -353.936     315.133
  H      527.510    -348.076     318.643
  H      529.892    -354.575     314.429
  H      530.914    -354.452     318.773
  H      529.200    -352.812     318.029
  H      527.867    -350.389     320.125
  H      530.125    -348.920     319.276
  H      530.014    -349.906     317.069
  H      526.990    -349.336     317.202
  H      532.888    -353.777     321.853
  H      526.824    -351.270     315.674
  H      532.569    -354.972     320.641
  H      527.758    -349.944     314.944
  P      530.277    -347.782     315.479
  C      529.179    -346.117     313.855
  O      530.020    -346.270     314.994
  O      530.331    -348.796     314.390
  O      531.656    -347.640     316.294
  H      531.993    -348.543     316.560
  H      529.078    -345.077     313.623
  H      528.215    -346.531     314.065
  H      529.612    -346.628     313.021

 6  7  8  9  10  11  12  13  14  15  16  26  30  31  32  33  35 0
 6-311+G(2d,p)
 ****
 37  38 0
 6-311+G(2d,p)
 ****
 1  2  3  4  5  17  18  19  20  21  22  23  24  25 0
 3-21G
 ****
 27  28  29  34  36  39  40  41  42  43  44  45  46 0
 3-21G
 ****


