%nproc=1
%NoSave
%Mem=1900MB
#P OB98/GEN NMR

erre ene a

0 1
  C      -11.962     -36.657     -37.209
  O      -11.282     -35.659     -37.941
  H      -11.491     -37.630     -37.368
  H      -11.910     -36.413     -36.144
  H      -13.013     -36.699     -37.512
  P      -11.210     -35.852     -39.532
  C       -8.807     -36.849     -39.500
  O      -10.186     -37.067     -39.762
  C       -7.988     -37.297     -40.705
  O       -8.111     -38.726     -40.886
  C       -8.439     -36.673     -42.021
  O       -7.911     -35.372     -42.215
  C       -7.854     -37.660     -43.016
  O       -6.440     -37.434     -43.151
  C       -8.116     -39.001     -42.313
  N      -10.672     -41.522     -45.962
  C       -9.389     -41.107     -45.882
  N       -8.781     -40.461     -44.867
  C       -9.635     -40.258     -43.852
  C      -10.968     -40.630     -43.787
  C      -11.493     -41.289     -44.911
  N      -12.807     -41.685     -45.009
  N      -11.525     -40.229     -42.588
  C      -10.540     -39.644     -41.938
  N       -9.387     -39.607     -42.674
  O      -10.377     -34.581     -40.034
  O      -12.520     -36.006     -40.231
  H       -6.092     -37.261     -42.256
  H      -10.464     -34.477     -41.001
  H       -8.772     -41.319     -46.750
  H      -10.614     -39.224     -40.943
  H       -7.334     -39.741     -42.513
  H       -8.292     -37.563     -44.013
  H       -9.531     -36.676     -42.114
  H       -6.932     -37.077     -40.505
  H       -8.516     -37.431     -38.619
  H      -13.123     -42.014     -45.908
  H      -13.458     -41.387     -44.298
  H       -8.638     -35.786     -39.302
  P       -8.790     -34.336     -43.072
  C       -7.933     -35.180     -45.375
  O       -9.043     -35.028     -44.498
  O       -7.746     -33.173     -43.407
  O      -10.006     -33.824     -42.372
  H       -8.195     -32.308     -43.460
  H       -8.255     -35.654     -46.279
  H       -7.186     -35.783     -44.903
  H       -7.524     -34.218     -45.603

 6  7  8  9  10  11  12  13  14  15  25  28  32  33  34  35 0
 6-311+G(2d,p)
 ****
 36  39  40 0
 6-311+G(2d,p)
 ****
 1  2  3  4  5  16  17  18  19  20  21  22  23  24 0
 3-21G
 ****
 26  27  29  30  31  37  38  41  42  43  44  45  46  47 0
 3-21G
 ****
 48 0
 3-21G
 ****


