%nproc=1
%NoSave
%Mem=1900MB
#P OB98/GEN NMR

erre ene a

0 1
  C      575.892     547.389     522.805
  O      576.398     546.281     522.087
  H      576.132     547.285     523.870
  H      576.355     548.301     522.427
  H      574.806     547.462     522.674
  P      575.858     544.830     522.518
  C      575.825     543.554     524.790
  O      575.981     544.798     524.126
  C      575.595     543.796     526.275
  O      576.738     544.488     526.851
  C      574.389     544.689     526.572
  O      573.166     543.972     526.549
  C      574.738     545.179     527.974
  O      574.458     544.137     528.925
  C      576.251     545.420     527.856
  N      576.187     550.348     529.241
  C      575.820     549.230     529.890
  N      575.876     547.942     529.471
  C      576.402     547.897     528.221
  C      576.827     548.951     527.443
  C      576.695     550.233     527.991
  N      577.045     551.385     527.320
  N      577.281     548.496     526.218
  C      577.155     547.189     526.276
  N      576.603     546.763     527.454
  O      577.027     543.838     522.051
  O      574.526     544.442     521.991
  H      574.952     544.349     529.745
  H      576.714     542.913     522.060
  H      575.417     549.367     530.897
  H      577.440     546.489     525.482
  H      576.784     545.197     528.802
  H      574.142     546.051     528.272
  H      574.361     545.561     525.900
  H      575.498     542.831     526.785
  H      576.744     542.967     524.652
  H      576.776     552.264     527.732
  H      577.288     551.322     526.336
  H      574.977     543.013     524.370
  P      571.807     544.832     526.571
  C      569.821     544.965     528.267
  O      571.220     544.715     528.073
  O      570.802     543.940     525.708
  O      571.938     546.217     526.036
  H      570.167     544.496     525.228
  H      569.579     544.852     529.303
  H      569.251     544.268     527.689
  H      569.590     545.962     527.954

 6  7  8  9  10  11  12  13  14  15  25  28  32  33  34  35 0
 6-311+G(2d,p)
 ****
 36  39  40 0
 6-311+G(2d,p)
 ****
 1  2  3  4  5  16  17  18  19  20  21  22  23  24 0
 3-21G
 ****
 26  27  29  30  31  37  38  41  42  43  44  45  46  47 0
 3-21G
 ****
 48 0
 3-21G
 ****


