%nproc=1
%NoSave
%Mem=1900MB
#P OB98/GEN NMR

erre ene a

0 1
  C      408.382    -156.840      75.934
  O      409.306    -157.305      76.904
  P      410.872    -157.000      76.756
  C      412.115    -159.076      75.868
  O      411.369    -157.911      75.528
  C      411.228    -160.324      75.839
  O      410.584    -160.455      74.557
  C      411.983    -161.629      76.066
  O      412.290    -161.799      77.441
  C      410.991    -162.643      75.508
  O      409.980    -162.976      76.471
  C      410.376    -161.867      74.316
  N      410.929    -162.287      73.037
  C      410.568    -163.574      72.603
  O      409.852    -164.284      73.307
  N      411.063    -164.029      71.408
  C      411.872    -163.281      70.716
  N      412.350    -163.791      69.549
  C      412.304    -161.934      71.153
  C      411.799    -161.507      72.309
  O      411.669    -157.121      78.009
  O      410.892    -155.523      76.127
  H      410.457    -163.282      77.270
  H      410.661    -154.836      76.805
  H      412.987    -161.355      70.551
  H      412.067    -160.531      72.706
  H      409.284    -162.016      74.284
  H      411.479    -163.577      75.211
  H      412.899    -161.639      75.457
  H      410.448    -160.203      76.608
  H      412.052    -164.728      69.299
  H      412.524    -158.944      76.873
  H      413.010    -163.311      68.957
  H      412.958    -159.186      75.168
  P      413.341    -162.924      77.885
  C      412.638    -164.729      79.579
  O      412.514    -164.252      78.247
  O      414.340    -162.492      78.913
  O      414.072    -163.322      76.515
  H      415.033    -163.382      76.676
  H      411.799    -165.402      79.789
  H      412.616    -163.899      80.291
  H      413.573    -165.282      79.680
  H      407.393    -157.143      76.209
  H      408.629    -157.254      74.979
  H      408.426    -155.772      75.882

 3  4  5  6  7  8  9  10  11  12  13  23  27  28  29  30  32 0
 6-311+G(2d,p)
 ****
 34  35 0
 6-311+G(2d,p)
 ****
 1  2  14  15  16  17  18  19  20  21  22  24  25  26 0
 3-21G
 ****
 31  33  36  37  38  39  40  41  42  43  44  45  46 0
 3-21G
 ****


