%nproc=1
%NoSave
%Mem=1900MB
#P OB98/GEN NMR

erre ene a

0 1
  C     -251.409    -150.141    -159.341
  O     -250.279    -150.366    -158.517
  P     -248.851    -150.482    -159.242
  C     -249.293    -152.996    -159.750
  O     -248.423    -152.024    -159.184
  C     -248.579    -154.340    -159.862
  O     -247.620    -154.305    -160.937
  C     -247.787    -154.741    -158.625
  O     -248.644    -155.198    -157.593
  C     -246.872    -155.810    -159.214
  O     -247.588    -157.047    -159.357
  C     -246.548    -155.225    -160.598
  N     -242.566    -153.847    -163.506
  C     -243.656    -154.600    -163.770
  N     -244.662    -154.941    -162.937
  C     -244.469    -154.412    -161.717
  C     -243.397    -153.644    -161.296
  C     -242.411    -153.358    -162.252
  N     -241.298    -152.591    -161.979
  N     -243.532    -153.300    -159.969
  C     -244.673    -153.843    -159.596
  N     -245.283    -154.513    -160.621
  O     -247.857    -149.782    -158.203
  O     -248.780    -149.850    -160.597
  H     -246.950    -157.717    -159.674
  H     -247.138    -149.314    -158.669
  H     -243.733    -154.979    -164.784
  H     -245.097    -153.775    -158.605
  H     -246.510    -155.991    -161.381
  H     -245.991    -156.010    -158.596
  H     -247.190    -153.896    -158.262
  H     -249.331    -155.105    -160.097
  H     -249.598    -152.674    -160.751
  H     -240.572    -152.560    -162.677
  H     -241.115    -152.348    -161.014
  H     -250.189    -153.078    -159.126
  P     -248.964    -154.177    -156.395
  C     -246.631    -154.091    -155.323
  O     -247.943    -154.619    -155.235
  O     -250.362    -154.731    -155.860
  O     -248.934    -152.737    -156.774
  H     -250.345    -155.695    -155.721
  H     -246.063    -154.425    -154.450
  H     -246.661    -152.999    -155.331
  H     -246.139    -154.460    -156.227
  H     -252.288    -150.085    -158.733
  H     -251.508    -150.947    -160.038
  H     -251.284    -149.221    -159.874

 3  4  5  6  7  8  9  10  11  12  22  25  29  30  31  32 0
 6-311+G(2d,p)
 ****
 33  36  37 0
 6-311+G(2d,p)
 ****
 1  2  13  14  15  16  17  18  19  20  21  23  24  26 0
 3-21G
 ****
 27  28  34  35  38  39  40  41  42  43  44  45  46  47  48 0
 3-21G
 ****


