%nproc=1
%NoSave
%Mem=1900MB
#P OB98/GEN NMR

erre ene a

0 1
  C      132.143     282.454    -268.637
  O      131.785     281.707    -269.804
  P      131.272     282.555    -271.073
  C      133.336     283.094    -272.563
  O      132.248     282.216    -272.301
  C      133.839     282.914    -273.995
  O      134.901     283.841    -274.289
  C      134.424     281.540    -274.281
  O      133.408     280.576    -274.523
  C      135.216     281.817    -275.552
  O      134.342     281.776    -276.696
  C      135.727     283.247    -275.321
  N      140.466     284.493    -276.619
  C      139.295     284.584    -277.346
  N      139.402     285.106    -278.588
  N      138.130     284.196    -276.899
  C      138.174     283.724    -275.630
  C      139.267     283.583    -274.808
  C      140.556     283.984    -275.327
  O      141.628     283.895    -274.736
  N      138.915     283.073    -273.584
  C      137.606     282.933    -273.656
  N      137.112     283.299    -274.884
  O      131.671     284.057    -270.687
  O      129.811     282.415    -271.344
  H      133.578     282.353    -276.494
  H      131.074     284.687    -271.132
  H      141.341     284.797    -277.015
  H      136.975     282.575    -272.851
  H      135.627     283.869    -276.217
  H      136.006     281.078    -275.730
  H      140.254     285.489    -278.966
  H      135.106     281.225    -273.480
  H      138.548     285.213    -279.120
  H      133.001     283.116    -274.677
  H      134.152     282.896    -271.863
  H      133.011     284.124    -272.389
  P      133.753     279.046    -274.188
  C      132.923     279.228    -271.736
  O      132.752     278.632    -273.006
  O      135.182     279.146    -273.468
  O      133.782     278.142    -275.374
  H      135.691     278.327    -273.613
  H      133.118     280.301    -271.824
  H      133.752     278.746    -271.210
  H      132.007     279.088    -271.155
  H      132.465     281.783    -267.869
  H      131.294     283.008    -268.294
  H      132.937     283.130    -268.876

 3  4  5  6  7  8  9  10  11  12  23  26  30  31  33  0
 6-311+G(2d,p)
 ****
 35  36  37  38 0
 6-311+G(2d,p)
 ****
 1  2  13  14  15  16  17  18  19  20  21  22  24  25  27  28  29 0
 3-21G
 ****
 32  34  39  40  41  42  43  44  45  46  47  48  49 0
 3-21G
 ****


