%nproc=1
%NoSave
%Mem=1900MB
#P OB98/GEN NMR

erre ene a

0 1
  C      185.476     -44.349     212.910
  O      185.483     -43.033     212.396
  H      185.094     -45.024     212.140
  H      184.821     -44.404     213.782
  H      186.488     -44.659     213.184
  P      186.095     -41.888     213.341
  C      183.740     -41.741     214.417
  O      184.846     -41.031     213.881
  C      183.232     -41.069     215.690
  O      184.295     -41.083     216.688
  C      182.796     -39.606     215.504
  O      181.687     -39.360     216.375
  C      183.993     -38.828     216.030
  O      183.656     -37.498     216.416
  C      184.418     -39.736     217.184
  N      187.126     -36.870     220.308
  C      185.759     -36.954     220.127
  N      184.992     -36.154     220.894
  N      185.192     -37.758     219.266
  C      186.079     -38.527     218.587
  C      187.449     -38.536     218.670
  C      188.066     -37.622     219.610
  O      189.271     -37.488     219.801
  N      187.992     -39.440     217.793
  C      186.950     -39.981     217.185
  N      185.768     -39.456     217.632
  O      186.799     -40.908     212.291
  O      187.045     -42.364     214.388
  H      182.876     -37.547     217.010
  H      187.741     -41.143     212.189
  H      187.511     -36.224     220.976
  H      186.998     -40.740     216.417
  H      183.766     -39.633     218.059
  H      184.778     -38.775     215.264
  H      185.354     -35.544     221.610
  H      182.529     -39.342     214.476
  H      183.985     -36.231     220.806
  H      182.410     -41.672     216.098
  H      184.053     -42.764     214.650
  H      182.940     -41.777     213.669
  P      180.254     -39.937     215.949
  C      179.395     -37.541     215.420
  O      179.175     -38.762     216.107
  O      179.890     -40.916     217.163
  O      180.246     -40.656     214.641
  H      179.304     -41.628     216.853
  H      178.591     -36.865     215.627
  H      179.442     -37.727     214.367
  H      180.318     -37.109     215.747

 6  7  8  9  10  11  12  13  14  15  26  29  33  34 0
 6-311+G(2d,p)
 ****
 36  38  39  40  41 0
 6-311+G(2d,p)
 ****
 1  2  3  4  5  16  17  18  19  20  21  22  23  24  25 0
 3-21G
 ****
 27  28  30  31  32  35  37  42  43  44  45  46  47 0
 3-21G
 ****
 48  49 0
 3-21G
 ****


