%nproc=1
%NoSave
%Mem=1900MB
#P OB98/GEN NMR

erre ene a

0 1
  C      380.734     -38.703    -134.936
  O      380.430     -40.072    -134.772
  H      381.385     -38.389    -134.120
  H      379.818     -38.108    -134.905
  H      381.256     -38.541    -135.886
  P      379.494     -40.758    -135.891
  C      380.858     -42.974    -135.812
  O      379.599     -42.338    -135.612
  C      380.869     -44.354    -135.145
  O      380.787     -44.183    -133.711
  C      379.709     -45.257    -135.584
  O      380.199     -46.585    -135.799
  C      378.746     -45.225    -134.404
  O      377.943     -46.393    -134.337
  C      379.710     -45.012    -133.225
  N      379.033     -44.382    -132.080
  C      378.420     -45.247    -131.169
  O      378.447     -46.468    -131.342
  N      377.744     -44.702    -130.103
  C      377.633     -43.414    -129.991
  N      376.923     -42.938    -128.927
  C      378.221     -42.466    -130.962
  C      378.901     -43.017    -131.970
  O      380.336     -40.549    -137.234
  O      378.097     -40.229    -135.963
  H      377.210     -46.227    -133.708
  H      379.790     -40.737    -138.038
  H      378.092     -41.401    -130.837
  H      379.374     -42.397    -132.730
  H      380.133     -45.967    -132.894
  H      378.085     -44.359    -134.507
  H      379.220     -44.905    -136.486
  H      381.835     -44.831    -135.349
  H      376.529     -43.618    -128.296
  H      381.647     -42.345    -135.384
  H      376.757     -41.958    -128.763
  H      381.034     -43.093    -136.885
  P      379.562     -47.366    -137.052
  C      381.716     -48.559    -137.858
  O      380.425     -48.703    -137.287
  O      379.930     -46.442    -138.309
  O      378.078     -47.591    -136.927
  H      379.172     -45.879    -138.556
  H      382.172     -49.522    -137.956
  H      382.319     -47.941    -137.225
  H      381.631     -48.105    -138.823

 6  7  8  9  10  11  12  13  14  15  16  26  30  31  32  33  35 0
 6-311+G(2d,p)
 ****
 37  38 0
 6-311+G(2d,p)
 ****
 1  2  3  4  5  17  18  19  20  21  22  23  24  25 0
 3-21G
 ****
 27  28  29  34  36  39  40  41  42  43  44  45  46 0
 3-21G
 ****


