%nproc=1
%NoSave
%Mem=1900MB
#P OB98/GEN NMR

erre ene a

0 1
  C     1051.040    -326.734     371.982
  O     1051.425    -325.721     372.900
  H     1050.994    -327.698     372.528
  H     1051.790    -326.830     371.196
  H     1050.062    -326.515     371.574
  P     1051.588    -324.238     372.293
  C     1049.397    -323.393     373.412
  O     1050.818    -323.250     373.307
  C     1049.009    -323.733     374.851
  O     1049.440    -325.093     375.186
  C     1049.597    -322.821     375.917
  O     1048.837    -321.633     376.047
  C     1049.536    -323.708     377.163
  O     1048.224    -323.702     377.729
  C     1049.891    -325.088     376.581
  N     1053.891    -325.422     379.664
  C     1052.586    -325.087     379.920
  N     1052.293    -324.769     381.208
  N     1051.629    -325.075     379.030
  C     1052.053    -325.435     377.806
  C     1053.346    -325.768     377.395
  C     1054.378    -325.792     378.402
  O     1055.527    -326.152     378.237
  N     1053.386    -326.051     376.045
  C     1052.133    -325.827     375.614
  N     1051.312    -325.401     376.643
  O     1050.623    -324.263     371.002
  O     1052.978    -323.843     371.941
  H     1048.191    -324.376     378.406
  H     1050.993    -323.661     370.327
  H     1054.560    -325.414     380.388
  H     1051.804    -325.938     374.596
  H     1049.350    -325.892     377.105
  H     1050.256    -323.367     377.912
  H     1053.017    -324.418     381.829
  H     1050.647    -322.570     375.679
  H     1051.323    -324.486     381.412
  H     1047.907    -323.729     374.924
  H     1049.064    -324.203     372.747
  H     1048.917    -322.467     373.104
  P     1049.601    -320.308     376.543
  C     1050.273    -319.572     374.134
  O     1049.543    -319.260     375.346
  O     1051.136    -320.755     376.589
  O     1049.134    -319.784     377.865
  H     1051.666    -320.117     377.127
  H     1050.141    -318.782     373.425
  H     1049.904    -320.487     373.721
  H     1051.313    -319.678     374.361

 6  7  8  9  10  11  12  13  14  15  26  29  33  34 0
 6-311+G(2d,p)
 ****
 36  38  39  40  41 0
 6-311+G(2d,p)
 ****
 1  2  3  4  5  16  17  18  19  20  21  22  23  24  25 0
 3-21G
 ****
 27  28  30  31  32  35  37  42  43  44  45  46  47 0
 3-21G
 ****
 48  49 0
 3-21G
 ****


