%nproc=1
%NoSave
%Mem=1900MB
#P OB98/GEN NMR

erre ene a

0 1
  C     -187.464    -294.751     645.948
  O     -186.289    -294.130     646.422
  P     -184.928    -294.963     646.570
  C     -183.643    -293.172     645.235
  O     -183.999    -294.554     645.321
  C     -182.819    -292.929     643.976
  O     -183.595    -293.197     642.779
  C     -182.362    -291.483     643.805
  O     -181.435    -290.975     644.744
  C     -181.949    -291.476     642.344
  O     -180.633    -292.015     642.174
  C     -183.008    -292.408     641.711
  N     -184.017    -291.667     640.956
  C     -183.718    -291.417     639.622
  O     -182.676    -291.785     639.080
  N     -184.652    -290.697     638.929
  C     -185.798    -290.170     639.430
  O     -186.562    -289.487     638.770
  C     -186.053    -290.447     640.861
  C     -185.161    -291.171     641.548
  O     -185.101    -296.436     646.757
  O     -184.187    -294.238     647.800
  H     -180.289    -291.687     641.319
  H     -183.995    -293.299     647.653
  H     -184.447    -290.489     637.962
  H     -186.964    -290.050     641.290
  H     -185.331    -291.394     642.602
  H     -182.526    -293.125     641.029
  H     -181.932    -290.460     641.931
  H     -183.244    -290.832     643.884
  H     -181.973    -293.616     643.973
  H     -183.045    -292.908     646.113
  H     -184.551    -292.554     645.253
  P     -181.706    -289.680     645.643
  C     -180.872    -290.410     647.990
  O     -181.977    -290.157     647.148
  O     -182.620    -288.648     645.070
  O     -180.223    -289.056     645.756
  H     -180.292    -288.086     645.830
  H     -181.243    -290.759     648.961
  H     -180.294    -289.494     648.151
  H     -180.227    -291.183     647.559
  H     -188.259    -294.036     645.921
  H     -187.730    -295.556     646.601
  H     -187.293    -295.133     644.963

 3  4  5  6  7  8  9  10  11  12  13  23  28  29  30  31  32 0
 6-311+G(2d,p)
 ****
 33  34 0
 6-311+G(2d,p)
 ****
 1  2  14  15  16  17  18  19  20  21  22  24  25  26  27 0
 3-21G
 ****
 35  36  37  38  39  40  41  42  43  44  45 0
 3-21G
 ****


