%nproc=1
%NoSave
%Mem=1900MB
#P OB98/GEN NMR

erre ene a

0 1
  C      901.700    -330.814    -285.377
  O      900.554    -330.850    -286.198
  H      902.143    -331.815    -285.348
  H      901.431    -330.524    -284.361
  H      902.444    -330.115    -285.782
  P      899.862    -329.439    -286.530
  C      898.597    -327.624    -285.172
  O      899.276    -328.871    -285.153
  C      897.422    -327.636    -284.190
  O      897.878    -328.060    -282.887
  C      896.757    -326.269    -283.998
  O      895.820    -325.994    -285.028
  C      896.060    -326.496    -282.660
  O      894.872    -327.288    -282.860
  C      897.111    -327.308    -281.890
  N      897.500    -323.891    -278.159
  C      896.373    -324.500    -278.690
  N      895.177    -324.136    -278.165
  N      896.415    -325.381    -279.672
  C      897.672    -325.640    -280.093
  C      898.863    -325.103    -279.635
  C      898.804    -324.139    -278.559
  O      899.761    -323.589    -278.032
  N      899.940    -325.628    -280.307
  C      899.401    -326.439    -281.193
  N      898.031    -326.491    -281.111
  O      898.546    -329.852    -287.357
  O      900.712    -328.484    -287.306
  H      895.159    -328.155    -283.176
  H      898.385    -329.182    -288.045
  H      897.404    -323.217    -277.422
  H      899.959    -327.039    -281.901
  H      896.669    -328.029    -281.200
  H      895.757    -325.567    -282.189
  H      895.078    -323.430    -277.466
  H      897.495    -325.468    -283.904
  H      894.337    -324.593    -278.541
  H      896.699    -328.379    -284.545
  H      898.221    -327.434    -286.188
  H      899.314    -326.836    -284.903
  P      895.731    -324.484    -285.567
  C      894.581    -322.317    -284.691
  O      894.844    -323.699    -284.476
  O      894.749    -324.602    -286.818
  O      897.029    -323.850    -285.913
  H      894.896    -323.847    -287.429
  H      893.985    -321.938    -283.887
  H      894.055    -322.193    -285.615
  H      895.506    -321.780    -284.733

 6  7  8  9  10  11  12  13  14  15  26  29  33  34 0
 6-311+G(2d,p)
 ****
 36  38  39  40  41 0
 6-311+G(2d,p)
 ****
 1  2  3  4  5  16  17  18  19  20  21  22  23  24  25 0
 3-21G
 ****
 27  28  30  31  32  35  37  42  43  44  45  46  47 0
 3-21G
 ****
 48  49 0
 3-21G
 ****


