%nproc=1
%NoSave
%Mem=1900MB
#P OB98/GEN NMR

erre ene a

0 1
  C       47.516     121.015      22.519
  O       47.038     121.688      23.672
  P       45.987     120.912      24.606
  C       44.019     122.515      24.058
  O       44.528     121.190      24.000
  C       42.703     122.561      24.836
  O       41.618     122.173      23.947
  C       42.650     121.628      26.057
  O       41.863     122.294      27.050
  C       41.924     120.417      25.500
  O       41.395     119.554      26.492
  C       40.900     121.103      24.601
  N       38.649     116.565      23.917
  C       39.057     117.208      25.034
  N       39.642     118.420      25.139
  C       39.784     118.984      23.928
  C       39.434     118.443      22.702
  C       38.838     117.172      22.723
  N       38.429     116.514      21.580
  N       39.759     119.303      21.674
  C       40.299     120.347      22.269
  N       40.317     120.208      23.630
  O       45.996     121.773      25.952
  O       46.311     119.472      24.858
  H       40.722     120.026      27.020
  H       45.936     121.199      26.739
  H       38.893     116.679      25.968
  H       40.701     121.215      21.765
  H       40.083     121.552      25.178
  H       42.627     119.824      24.902
  H       43.637     121.403      26.473
  H       42.519     123.597      25.143
  H       43.830     122.875      23.042
  H       38.202     115.536      21.683
  H       38.761     116.879      20.696
  H       44.768     123.172      24.513
  P       42.245     122.103      28.597
  C       40.588     120.173      28.957
  O       41.949     120.550      28.879
  O       40.992     122.803      29.307
  O       43.573     122.635      29.012
  H       40.147     122.467      28.958
  H       40.533     119.085      29.053
  H       40.057     120.476      28.052
  H       40.125     120.629      29.836
  H       48.203     121.647      21.996
  H       46.693     120.777      21.878
  H       48.012     120.114      22.812

 3  4  5  6  7  8  9  10  11  12  22  25  29  30  31  32 0
 6-311+G(2d,p)
 ****
 33  36  37 0
 6-311+G(2d,p)
 ****
 1  2  13  14  15  16  17  18  19  20  21  23  24  26 0
 3-21G
 ****
 27  28  34  35  38  39  40  41  42  43  44  45  46  47  48 0
 3-21G
 ****


