%nproc=1
%NoSave
%Mem=1900MB
#P OB98/GEN NMR

erre ene a

0 1
  C      -98.649     231.331    -215.979
  O     -100.050     231.524    -216.041
  P     -100.684     232.708    -216.915
  C     -100.374     234.505    -215.112
  O     -100.029     234.087    -216.428
  C     -100.763     235.981    -215.080
  O      -99.630     236.787    -215.497
  C     -101.952     236.338    -215.984
  O     -102.728     237.323    -215.292
  C     -101.285     236.948    -217.202
  O     -102.165     237.786    -217.941
  C     -100.092     237.654    -216.552
  N      -99.032     237.951    -217.509
  C      -98.710     239.293    -217.702
  O      -99.398     240.176    -217.183
  N      -97.627     239.602    -218.492
  C      -97.049     238.660    -219.173
  N      -95.939     238.997    -219.891
  C      -97.524     237.263    -219.182
  C      -98.482     236.971    -218.301
  O     -102.176     232.717    -216.980
  O     -100.051     232.505    -218.375
  H     -100.772     232.468    -219.032
  H     -101.710     238.088    -218.756
  H      -97.091     236.543    -219.862
  H      -98.878     235.966    -218.213
  H     -100.413     238.593    -216.078
  H     -100.941     236.148    -217.871
  H     -102.583     235.474    -216.216
  H     -100.985     236.252    -214.039
  H      -95.617     239.955    -219.830
  H      -99.507     234.349    -214.468
  H      -95.251     238.300    -220.183
  H     -101.192     233.883    -214.727
  P     -104.332     237.276    -215.445
  C     -104.494     238.674    -217.624
  O     -104.683     237.419    -216.999
  O     -104.752     238.717    -214.870
  O     -105.041     236.199    -214.682
  H     -105.670     238.673    -214.540
  H     -104.847     238.603    -218.657
  H     -103.431     238.932    -217.635
  H     -105.067     239.450    -217.116
  H      -98.432     230.495    -215.348
  H      -98.185     232.209    -215.580
  H      -98.271     231.143    -216.962

 3  4  5  6  7  8  9  10  11  12  13  24  27  28  29  30  32 0
 6-311+G(2d,p)
 ****
 34  35 0
 6-311+G(2d,p)
 ****
 1  2  14  15  16  17  18  19  20  21  22  23  25  26 0
 3-21G
 ****
 31  33  36  37  38  39  40  41  42  43  44  45  46 0
 3-21G
 ****


