%nproc=1
%NoSave
%Mem=1900MB
#P OB98/GEN NMR

erre ene a

0 1
  C     -470.835       0.287      -9.594
  O     -471.371       0.878     -10.776
  P     -472.605       0.139     -11.478
  C     -474.399       1.780     -10.476
  O     -473.796       1.202     -11.627
  C     -475.130       3.090     -10.836
  O     -474.141       4.128     -11.041
  C     -475.954       3.045     -12.118
  O     -476.887       4.123     -12.103
  C     -474.893       3.312     -13.170
  O     -475.470       3.725     -14.407
  C     -473.984       4.348     -12.469
  N     -472.562       4.241     -12.846
  C     -471.916       5.377     -13.353
  O     -472.471       6.468     -13.501
  N     -470.608       5.215     -13.728
  C     -469.882       4.066     -13.616
  O     -468.736       3.949     -14.044
  C     -470.559       2.946     -12.956
  C     -471.844       3.075     -12.620
  O     -473.123      -0.875     -10.360
  O     -472.245      -0.557     -12.753
  H     -475.891       2.923     -14.799
  H     -472.860      -1.791     -10.580
  H     -470.152       6.007     -14.156
  H     -469.989       2.028     -12.787
  H     -472.369       2.240     -12.146
  H     -474.304       5.373     -12.699
  H     -474.327       2.390     -13.368
  H     -476.476       2.102     -12.298
  H     -475.761       3.388      -9.981
  H     -473.637       1.965      -9.710
  H     -475.110       1.068     -10.040
  P     -478.269       3.916     -11.314
  C     -477.868       5.502      -9.326
  O     -478.565       5.296     -10.544
  O     -478.370       2.679     -10.482
  O     -479.360       3.933     -12.484
  H     -480.194       3.519     -12.166
  H     -477.728       6.581      -9.177
  H     -476.896       5.011      -9.328
  H     -478.471       5.114      -8.496
  H     -470.021       0.882      -9.235
  H     -470.485      -0.699      -9.816
  H     -471.597       0.235      -8.844

 3  4  5  6  7  8  9  10  11  12  13  23  28  29  30  31  32 0
 6-311+G(2d,p)
 ****
 33  34 0
 6-311+G(2d,p)
 ****
 1  2  14  15  16  17  18  19  20  21  22  24  25  26  27 0
 3-21G
 ****
 35  36  37  38  39  40  41  42  43  44  45 0
 3-21G
 ****


