%nproc=1
%NoSave
%Mem=1900MB
#P OB98/GEN NMR

erre ene a

0 1
  C      144.071    -149.997    1026.468
  O      143.881    -151.114    1025.629
  H      143.177    -149.362    1026.424
  H      144.928    -149.413    1026.122
  H      144.225    -150.303    1027.506
  P      144.903    -152.347    1025.732
  C      143.606    -153.807    1027.422
  O      144.742    -152.957    1027.206
  C      143.967    -154.945    1028.387
  O      144.117    -154.389    1029.740
  C      142.898    -156.060    1028.468
  O      143.588    -157.280    1028.744
  C      142.079    -155.622    1029.658
  O      141.293    -156.677    1030.156
  C      143.177    -155.098    1030.586
  N      142.650    -154.242    1031.645
  C      142.788    -154.704    1032.949
  O      143.288    -155.803    1033.232
  N      142.285    -153.895    1033.934
  C      141.618    -152.719    1033.739
  O      141.154    -152.054    1034.656
  C      141.470    -152.295    1032.343
  C      141.985    -153.058    1031.374
  O      146.318    -152.047    1025.337
  O      144.253    -153.482    1024.802
  H      141.826    -157.504    1030.230
  H      144.950    -154.038    1024.418
  H      142.382    -154.222    1034.885
  H      140.939    -151.382    1032.142
  H      141.893    -152.769    1030.320
  H      143.721    -155.933    1031.058
  H      141.395    -154.810    1029.386
  H      142.317    -156.151    1027.544
  H      144.945    -155.353    1028.108
  H      143.315    -154.220    1026.452
  H      142.781    -153.213    1027.830
  P      144.442    -158.069    1027.620
  C      146.541    -156.554    1027.740
  O      145.458    -157.020    1026.929
  O      143.610    -158.842    1026.659
  O      145.421    -159.036    1028.455
  H      145.627    -159.817    1027.910
  H      147.140    -155.870    1027.176
  H      147.141    -157.385    1028.045
  H      146.152    -156.058    1028.605

 6  7  8  9  10  11  12  13  14  15  16  26  31  32  33  34  35 0
 6-311+G(2d,p)
 ****
 36  37 0
 6-311+G(2d,p)
 ****
 1  2  3  4  5  17  18  19  20  21  22  23  24  25 0
 3-21G
 ****
 27  28  29  30  38  39  40  41  42  43  44  45 0
 3-21G
 ****


