%nproc=1
%NoSave
%Mem=1900MB
#P OB98/GEN NMR

erre ene a

0 1
  C       34.414     -22.411     -22.500
  O       34.032     -21.166     -21.963
  P       34.484     -20.644     -20.526
  C       32.398     -21.732     -19.385
  O       33.812     -21.577     -19.409
  C       31.971     -22.714     -18.285
  O       30.536     -22.605     -18.101
  C       32.262     -24.170     -18.683
  O       32.784     -24.968     -17.629
  C       30.950     -24.618     -19.314
  O       30.793     -26.028     -19.359
  C       29.928     -23.859     -18.473
  N       24.861     -24.072     -18.153
  C       25.801     -24.211     -17.153
  N       25.338     -24.638     -15.957
  N       27.078     -23.985     -17.324
  C       27.406     -23.675     -18.600
  C       26.563     -23.507     -19.673
  C       25.152     -23.726     -19.462
  O       24.296     -23.725     -20.347
  N       27.255     -23.260     -20.830
  C       28.519     -23.311     -20.465
  N       28.662     -23.594     -19.126
  O       34.461     -19.165     -20.313
  O       36.027     -21.120     -20.477
  H       30.971     -26.374     -18.465
  H       36.519     -20.446     -19.969
  H       23.898     -24.338     -17.979
  H       29.367     -23.184     -21.129
  H       29.685     -24.398     -17.555
  H       30.945     -24.264     -20.350
  H       24.388     -24.959     -15.838
  H       33.051     -24.210     -19.443
  H       26.025     -24.984     -15.293
  H       32.451     -22.432     -17.343
  H       32.115     -22.123     -20.369
  H       31.908     -20.765     -19.253
  P       33.663     -26.297     -17.719
  C       32.253     -27.831     -16.223
  O       32.698     -27.562     -17.539
  O       34.527     -26.315     -16.373
  O       34.562     -26.369     -18.909
  H       35.428     -26.635     -16.567
  H       31.847     -28.845     -16.191
  H       31.466     -27.124     -15.950
  H       33.080     -27.756     -15.510
  H       33.984     -22.527     -23.473
  H       34.068     -23.196     -21.861
  H       35.480     -22.455     -22.574

 3  4  5  6  7  8  9  10  11  12  23  26  30  31 0
 6-311+G(2d,p)
 ****
 33  35  36  37  38 0
 6-311+G(2d,p)
 ****
 1  2  13  14  15  16  17  18  19  20  21  22  24  25 0
 3-21G
 ****
 27  28  29  32  34  39  40  41  42  43  44  45  46  47  48  49 0
 3-21G
 ****


