%nproc=1
%NoSave
%Mem=1900MB
#P OB98/GEN NMR

erre ene a

0 1
  C     -118.251      -3.306      32.601
  O     -117.680      -2.603      31.492
  P     -116.677      -1.389      31.803
  C     -116.918       1.121      32.444
  O     -117.544      -0.147      32.334
  C     -117.879       2.231      31.996
  O     -118.053       2.233      30.558
  C     -119.279       2.101      32.586
  O     -119.351       2.652      33.894
  C     -120.082       2.962      31.620
  O     -119.921       4.354      31.954
  C     -119.413       2.650      30.271
  N     -122.423       1.685      26.316
  C     -121.911       2.885      26.776
  N     -122.242       3.991      26.067
  N     -121.142       2.993      27.828
  C     -120.882       1.805      28.424
  C     -121.330       0.551      28.067
  C     -122.191       0.449      26.907
  O     -122.689      -0.585      26.463
  N     -120.853      -0.413      28.919
  C     -120.104       0.249      29.780
  N     -120.100       1.602      29.532
  O     -116.234      -0.909      30.339
  O     -115.500      -1.768      32.641
  H     -120.441       4.509      32.765
  H     -115.347      -0.506      30.375
  H     -123.015       1.661      25.505
  H     -119.545      -0.202      30.591
  H     -119.363       3.528      29.616
  H     -121.155       2.748      31.665
  H     -122.789       3.975      25.222
  H     -119.631       1.059      32.549
  H     -121.848       4.875      26.372
  H     -117.450       3.197      32.294
  H     -116.009       1.152      31.837
  H     -116.593       1.270      33.478
  P     -118.965       1.696      35.125
  C     -120.330       0.106      36.663
  O     -120.351       1.179      35.734
  O     -118.420       2.733      36.221
  O     -117.951       0.645      34.809
  H     -117.734       2.307      36.770
  H     -121.330      -0.006      37.090
  H     -119.618       0.300      37.468
  H     -120.063      -0.827      36.149
  H     -118.893      -4.082      32.239
  H     -118.817      -2.625      33.201
  H     -117.469      -3.736      33.191

 3  4  5  6  7  8  9  10  11  12  23  26  30  31 0
 6-311+G(2d,p)
 ****
 33  35  36  37  38 0
 6-311+G(2d,p)
 ****
 1  2  13  14  15  16  17  18  19  20  21  22  24  25 0
 3-21G
 ****
 27  28  29  32  34  39  40  41  42  43  44  45  46  47  48  49 0
 3-21G
 ****


