%nproc=1
%NoSave
%Mem=1900MB
#P OB98/GEN NMR

erre ene a

0 1
  C      730.236    -893.030     616.422
  O      731.102    -892.490     615.441
  H      729.287    -892.510     616.387
  H      730.682    -892.900     617.417
  H      730.070    -894.100     616.238
  P      732.464    -893.230     615.088
  C      732.547    -893.060     612.509
  O      732.255    -893.890     613.629
  C      732.980    -893.930     611.311
  O      734.054    -894.820     611.762
  C      731.869    -894.820     610.718
  O      732.134    -894.940     609.328
  C      732.138    -896.130     611.447
  O      731.445    -897.190     610.844
  C      733.666    -896.150     611.396
  N      734.255    -897.150     612.281
  C      734.959    -898.210     611.700
  O      735.101    -898.330     610.490
  N      735.454    -899.130     612.566
  C      735.336    -899.130     613.920
  O      735.822    -900.000     614.648
  C      734.570    -898.010     614.485
  C      734.080    -897.090     613.650
  O      732.984    -894.170     616.134
  O      733.492    -892.050     614.798
  H      734.023    -891.870     615.604
  H      731.496    -898.000     611.414
  H      735.968    -899.900     612.149
  H      734.446    -897.990     615.547
  H      733.500    -896.230     614.038
  H      734.011    -896.330     610.383
  H      731.769    -896.080     612.478
  H      730.872    -894.400     610.885
  H      733.409    -893.260     610.543
  H      733.347    -892.370     612.789
  H      731.655    -892.490     612.246
  P      731.339    -894.080     608.198
  C      733.348    -893.190     606.834
  O      732.292    -892.850     607.714
  O      729.978    -893.660     608.622
  O      731.254    -895.030     606.925
  H      730.416    -894.890     606.459
  H      733.903    -892.309     606.586
  H      732.944    -893.621     605.942
  H      733.995    -893.897     607.310

 6  7  8  9  10  11  12  13  14  15  16  27  31  32  33  34  35 0
 6-311+G(2d,p)
 ****
 36  37 0
 6-311+G(2d,p)
 ****
 1  2  3  4  5  17  18  19  20  21  22  23  24  25 0
 3-21G
 ****
 26  28  29  30  38  39  40  41  42  43  44  45 0
 3-21G
 ****


