%nproc=1
%NoSave
%Mem=1900MB
#P OB98/GEN NMR

erre ene a

0 1
  C     -469.860    1238.867     127.768
  O     -468.804    1238.451     128.635
  H     -470.323    1239.751     128.191
  H     -470.606    1238.075     127.694
  H     -469.453    1239.109     126.793
  P     -468.008    1237.123     128.208
  C     -468.271    1235.655     130.336
  O     -468.741    1235.947     129.026
  C     -467.860    1234.191     130.454
  O     -468.922    1233.340     129.943
  C     -466.636    1233.806     129.676
  O     -465.444    1234.137     130.430
  C     -466.795    1232.312     129.530
  O     -466.376    1231.650     130.749
  C     -468.313    1232.163     129.361
  N     -469.244    1228.936     125.464
  C     -468.617    1228.757     126.658
  N     -468.367    1229.653     127.605
  C     -468.838    1230.887     127.264
  C     -469.487    1231.226     126.074
  C     -469.671    1230.183     125.145
  N     -470.323    1230.377     123.944
  N     -469.796    1232.560     126.073
  C     -469.406    1233.017     127.231
  N     -468.793    1232.057     127.981
  O     -466.537    1237.192     128.331
  O     -468.557    1236.901     126.720
  H     -465.412    1231.734     130.807
  H     -469.512    1237.092     126.674
  H     -468.299    1227.738     126.854
  H     -469.562    1234.026     127.602
  H     -468.711    1231.297     129.899
  H     -466.179    1231.888     128.723
  H     -466.589    1234.279     128.679
  H     -467.737    1233.953     131.513
  H     -469.033    1235.888     131.078
  H     -470.258    1229.630     123.281
  H     -470.531    1231.314     123.674
  H     -467.406    1236.291     130.514
  P     -464.098    1234.604     129.703
  C     -462.915    1232.742     131.000
  O     -463.136    1233.329     129.715
  O     -463.518    1235.869     130.247
  O     -464.513    1234.726     128.156
  H     -463.836    1235.276     127.668
  H     -462.262    1231.901     130.900
  H     -463.849    1232.421     131.411
  H     -462.469    1233.465     131.650

 6  7  8  9  10  11  12  13  14  15  25  28  32  33  34  35 0
 6-311+G(2d,p)
 ****
 36  39  40 0
 6-311+G(2d,p)
 ****
 1  2  3  4  5  16  17  18  19  20  21  22  23  24 0
 3-21G
 ****
 26  27  29  30  31  37  38  41  42  43  44  45  46  47 0
 3-21G
 ****
 48 0
 3-21G
 ****


