%nproc=1
%NoSave
%Mem=1900MB
#P OB98/GEN NMR

erre ene a

0 1
  C      104.227      23.035      76.764
  O      105.550      22.531      76.732
  P      106.440      22.591      75.394
  C      105.890      20.093      75.014
  O      105.896      21.401      74.468
  C      105.662      19.056      73.910
  O      104.497      19.450      73.139
  C      106.837      18.906      72.933
  O      106.893      17.528      72.546
  C      106.414      19.773      71.762
  O      107.073      19.422      70.555
  C      104.900      19.534      71.756
  N      104.169      20.587      71.060
  C      104.208      20.591      69.664
  O      104.858      19.749      69.047
  N      103.506      21.559      68.990
  C      102.889      22.490      69.650
  N      102.158      23.391      68.938
  C      102.912      22.585      71.122
  C      103.545      21.600      71.753
  O      107.912      22.581      75.621
  O      105.905      23.883      74.622
  H      106.601      19.846      69.813
  H      106.339      24.720      74.922
  H      102.407      23.396      71.626
  H      103.593      21.572      72.832
  H      104.672      18.563      71.303
  H      106.647      20.821      71.981
  H      107.793      19.198      73.373
  H      105.432      18.093      74.383
  H      102.025      23.190      67.952
  H      105.072      20.023      75.736
  H      101.413      23.920      69.375
  H      106.832      19.907      75.541
  P      108.335      16.840      72.391
  C      108.585      17.497      69.892
  O      109.112      17.579      71.200
  O      107.951      15.434      71.716
  O      109.099      16.606      73.653
  H      108.644      14.779      71.931
  H      109.235      18.061      69.218
  H      107.584      17.934      69.855
  H      108.550      16.457      69.558
  H      103.817      22.898      77.743
  H      103.628      22.510      76.049
  H      104.237      24.078      76.524

 3  4  5  6  7  8  9  10  11  12  13  23  27  28  29  30  32 0
 6-311+G(2d,p)
 ****
 34  35 0
 6-311+G(2d,p)
 ****
 1  2  14  15  16  17  18  19  20  21  22  24  25  26 0
 3-21G
 ****
 31  33  36  37  38  39  40  41  42  43  44  45  46 0
 3-21G
 ****


