%nproc=1
%NoSave
%Mem=1900MB
#P OB98/GEN NMR

erre ene a

0 1
  C      134.943     165.430    -293.581
  O      135.197     165.386    -292.179
  P      134.121     166.047    -291.190
  C      133.405     163.809    -289.964
  O      133.929     165.118    -289.902
  C      133.959     162.984    -288.789
  O      135.340     162.630    -289.033
  C      133.915     163.727    -287.456
  O      132.667     163.579    -286.805
  C      135.075     163.098    -286.707
  O      134.694     161.809    -286.195
  C      136.117     162.939    -287.845
  N      136.998     164.094    -288.140
  C      138.115     164.333    -287.343
  O      138.434     163.648    -286.377
  N      138.881     165.417    -287.701
  C      138.759     166.157    -288.841
  O      139.512     167.070    -289.143
  C      137.658     165.761    -289.722
  C      136.831     164.781    -289.340
  O      132.738     165.897    -291.978
  O      134.413     167.472    -290.821
  H      134.513     161.238    -286.956
  H      132.381     166.781    -292.202
  H      139.652     165.649    -287.097
  H      137.545     166.289    -290.668
  H      136.012     164.481    -289.987
  H      136.773     162.084    -287.648
  H      135.361     163.695    -285.846
  H      134.150     164.788    -287.605
  H      133.380     162.054    -288.713
  H      133.664     163.329    -290.913
  H      132.311     163.847    -289.919
  P      132.260     164.574    -285.619
  C      130.238     165.639    -286.789
  O      130.672     164.773    -285.752
  O      133.061     165.831    -285.512
  O      132.386     163.665    -284.301
  H      133.261     163.799    -283.874
  H      129.148     165.560    -286.871
  H      130.686     165.351    -287.741
  H      130.502     166.669    -286.550
  H      135.745     164.952    -294.104
  H      134.868     166.449    -293.898
  H      134.026     164.922    -293.793

 3  4  5  6  7  8  9  10  11  12  13  23  28  29  30  31  32 0
 6-311+G(2d,p)
 ****
 33  34 0
 6-311+G(2d,p)
 ****
 1  2  14  15  16  17  18  19  20  21  22  24  25  26  27 0
 3-21G
 ****
 35  36  37  38  39  40  41  42  43  44  45 0
 3-21G
 ****


