%nproc=1
%NoSave
%Mem=1900MB
#P OB98/GEN NMR

erre ene a

0 1
  C      197.345    -671.225    -258.245
  O      196.165    -672.004    -258.169
  P      196.220    -673.482    -257.559
  C      196.724    -672.243    -255.365
  O      196.984    -673.405    -256.150
  C      196.637    -672.611    -253.885
  O      195.387    -673.272    -253.603
  C      197.720    -673.581    -253.421
  O      198.952    -672.902    -253.252
  C      197.104    -674.111    -252.132
  O      197.313    -673.200    -251.048
  C      195.608    -674.171    -252.496
  N      193.407    -678.410    -250.722
  C      193.853    -677.310    -250.096
  N      194.477    -676.230    -250.636
  C      194.621    -676.394    -251.960
  C      194.248    -677.477    -252.729
  C      193.580    -678.529    -252.055
  N      193.054    -679.630    -252.695
  N      194.594    -677.285    -254.053
  C      195.190    -676.106    -254.072
  N      195.162    -675.502    -252.847
  O      196.719    -674.533    -258.493
  O      194.707    -673.772    -257.134
  H      198.258    -672.941    -251.063
  H      194.377    -674.547    -257.629
  H      193.701    -677.273    -249.022
  H      195.621    -675.639    -254.959
  H      194.974    -673.821    -251.671
  H      197.526    -675.080    -251.837
  H      197.813    -674.394    -254.138
  H      196.661    -671.687    -253.308
  H      195.780    -671.807    -255.694
  H      192.481    -680.239    -252.141
  H      192.911    -679.585    -253.704
  H      197.521    -671.513    -255.525
  P      200.316    -673.733    -253.232
  C      200.745    -673.760    -255.759
  O      200.417    -674.531    -254.615
  O      200.548    -674.568    -252.005
  O      201.448    -672.625    -253.382
  H      202.253    -672.894    -252.897
  H      199.873    -673.197    -256.088
  H      201.065    -674.434    -256.549
  H      201.565    -673.064    -255.524
  H      197.117    -670.273    -258.677
  H      198.067    -671.729    -258.853
  H      197.743    -671.084    -257.262

 3  4  5  6  7  8  9  10  11  12  22  25  29  30  31  32 0
 6-311+G(2d,p)
 ****
 33  36  37 0
 6-311+G(2d,p)
 ****
 1  2  13  14  15  16  17  18  19  20  21  23  24  26 0
 3-21G
 ****
 27  28  34  35  38  39  40  41  42  43  44  45  46  47  48 0
 3-21G
 ****


