%nproc=1
%NoSave
%Mem=1900MB
#P OB98/GEN NMR

erre ene a

0 1
  C     -536.636    -959.450     198.967
  O     -535.511    -958.831     199.592
  P     -534.365    -959.676     200.332
  C     -535.726    -959.357     202.503
  O     -534.965    -960.263     201.712
  C     -536.824    -960.098     203.306
  O     -536.232    -960.905     204.340
  C     -537.844    -959.181     203.971
  O     -538.787    -958.721     203.027
  C     -538.388    -960.133     205.037
  O     -539.387    -961.001     204.481
  C     -537.138    -960.912     205.446
  N     -537.897    -958.900     210.089
  C     -538.749    -959.343     209.170
  N     -538.477    -959.863     207.930
  C     -537.157    -959.924     207.733
  C     -536.145    -959.501     208.601
  C     -536.561    -958.963     209.843
  N     -535.699    -958.501     210.794
  N     -534.900    -959.695     208.058
  C     -535.136    -960.254     206.870
  N     -536.494    -960.398     206.647
  O     -533.070    -958.941     200.497
  O     -534.162    -960.974     199.411
  H     -538.913    -961.690     203.992
  H     -533.250    -961.310     199.506
  H     -539.817    -959.265     209.408
  H     -534.374    -960.550     206.172
  H     -537.382    -961.982     205.664
  H     -538.866    -959.563     205.868
  H     -537.329    -958.350     204.453
  H     -537.307    -960.790     202.590
  H     -536.195    -958.627     201.821
  H     -536.074    -958.100     211.642
  H     -534.697    -958.494     210.583
  H     -535.063    -958.827     203.189
  P     -538.880    -957.148     202.692
  C     -540.871    -956.828     204.260
  O     -539.551    -956.433     203.944
  O     -539.476    -956.823     201.362
  O     -537.362    -956.669     202.769
  H     -537.216    -955.929     202.162
  H     -541.573    -956.314     203.587
  H     -541.088    -956.536     205.308
  H     -540.977    -957.910     204.172
  H     -537.266    -958.698     198.540
  H     -537.188    -960.006     199.696
  H     -536.297    -960.111     198.197

 3  4  5  6  7  8  9  10  11  12  22  25  29  30  31  32 0
 6-311+G(2d,p)
 ****
 33  36  37 0
 6-311+G(2d,p)
 ****
 1  2  13  14  15  16  17  18  19  20  21  23  24  26 0
 3-21G
 ****
 27  28  34  35  38  39  40  41  42  43  44  45  46  47  48 0
 3-21G
 ****


