%nproc=1
%NoSave
%Mem=1900MB
#P OB98/GEN NMR

erre ene a

0 1
  C      -54.990     108.404    -115.976
  O      -54.561     109.292    -114.963
  H      -56.083     108.422    -116.016
  H      -54.668     107.384    -115.746
  H      -54.597     108.707    -116.950
  P      -52.987     109.571    -114.794
  C      -50.948     108.271    -113.890
  O      -52.353     108.268    -114.106
  C      -50.580     107.214    -112.846
  O      -51.215     107.518    -111.584
  C      -51.035     105.807    -113.211
  O      -50.195     105.234    -114.193
  C      -50.981     105.126    -111.851
  O      -49.639     104.736    -111.527
  C      -51.470     106.260    -110.917
  N      -52.882     106.131    -110.554
  C      -53.205     105.091    -109.684
  O      -52.377     104.286    -109.253
  N      -54.529     104.989    -109.347
  C      -55.550     105.727    -109.870
  O      -56.733     105.538    -109.601
  C      -55.155     106.795    -110.803
  C      -53.858     106.945    -111.097
  O      -52.625     110.866    -114.150
  O      -52.429     109.487    -116.294
  H      -49.315     104.215    -112.286
  H      -52.241     110.388    -116.619
  H      -54.786     104.235    -108.727
  H      -55.934     107.411    -111.229
  H      -53.546     107.722    -111.786
  H      -50.874     106.271    -109.993
  H      -51.598     104.229    -111.812
  H      -52.078     105.825    -113.556
  H      -49.490     107.249    -112.693
  H      -50.647     109.262    -113.524
  H      -50.440     108.074    -114.838
  P      -50.834     104.425    -115.418
  C      -51.548     102.003    -115.921
  O      -51.125     102.928    -114.918
  O      -50.084     104.524    -116.711
  O      -52.300     105.050    -115.569
  H      -52.398     105.447    -116.455
  H      -51.711     101.044    -115.476
  H      -50.792     101.923    -116.674
  H      -52.458     102.350    -116.365

 6  7  8  9  10  11  12  13  14  15  16  26  31  32  33  34  35 0
 6-311+G(2d,p)
 ****
 36  37 0
 6-311+G(2d,p)
 ****
 1  2  3  4  5  17  18  19  20  21  22  23  24  25 0
 3-21G
 ****
 27  28  29  30  38  39  40  41  42  43  44  45 0
 3-21G
 ****


