%nproc=1
%NoSave
%Mem=1900MB
#P OB98/GEN NMR

erre ene a

0 1
  C      -81.217    -180.089      99.285
  O      -79.974    -180.181      99.954
  H      -82.014    -180.020     100.031
  H      -81.384    -180.981      98.674
  H      -81.243    -179.192      98.658
  P      -78.666    -180.265      99.026
  C      -77.545    -178.353     100.368
  O      -77.481    -179.716      99.960
  C      -76.484    -178.061     101.430
  O      -76.838    -178.678     102.681
  C      -75.093    -178.591     101.087
  O      -74.421    -177.707     100.198
  C      -74.445    -178.598     102.465
  O      -74.020    -177.268     102.812
  C      -75.611    -179.033     103.378
  N      -74.922    -182.532     107.077
  C      -74.640    -181.212     107.027
  N      -74.813    -180.354     105.994
  C      -75.331    -180.985     104.930
  C      -75.666    -182.329     104.832
  C      -75.454    -183.117     105.974
  N      -75.747    -184.468     106.024
  N      -76.171    -182.619     103.580
  C      -76.188    -181.459     102.953
  N      -75.657    -180.445     103.714
  O      -78.788    -179.644      97.676
  O      -78.395    -181.848      99.027
  H      -74.791    -176.676     102.718
  H      -78.577    -182.226      99.906
  H      -74.229    -180.785     107.935
  H      -76.589    -181.295     101.957
  H      -75.604    -178.489     104.329
  H      -73.561    -179.238     102.504
  H      -75.135    -179.614     100.704
  H      -76.463    -176.977     101.595
  H      -78.539    -178.121     100.765
  H      -75.409    -184.988     106.816
  H      -76.024    -184.925     105.168
  H      -77.367    -177.736      99.482
  P      -74.315    -178.045      98.635
  C      -73.895    -175.545      98.190
  O      -73.436    -176.877      97.969
  O      -75.621    -178.303      97.953
  O      -73.346    -179.314      98.563
  H      -73.649    -179.934      97.869
  H      -73.237    -174.856      97.703
  H      -73.910    -175.343      99.241
  H      -74.882    -175.437      97.792

 6  7  8  9  10  11  12  13  14  15  25  28  32  33  34  35 0
 6-311+G(2d,p)
 ****
 36  39  40 0
 6-311+G(2d,p)
 ****
 1  2  3  4  5  16  17  18  19  20  21  22  23  24 0
 3-21G
 ****
 26  27  29  30  31  37  38  41  42  43  44  45  46  47 0
 3-21G
 ****
 48 0
 3-21G
 ****


