%nproc=1
%NoSave
%Mem=1900MB
#P OB98/GEN NMR

erre ene a

0 1
  C      -45.719       3.493     -11.147
  O      -46.532       2.839     -10.188
  P      -46.929       3.632      -8.852
  C      -44.675       2.747      -7.832
  O      -45.573       3.826      -8.017
  C      -43.354       3.250      -7.241
  O      -42.724       4.151      -8.194
  C      -43.498       4.011      -5.916
  O      -42.344       3.704      -5.122
  C      -43.470       5.464      -6.358
  O      -43.100       6.348      -5.312
  C      -42.461       5.393      -7.510
  N      -42.559       6.520      -8.439
  C      -41.861       7.683      -8.125
  O      -41.186       7.824      -7.106
  N      -41.985       8.712      -9.025
  C      -42.771       8.716     -10.140
  O      -42.860       9.674     -10.900
  C      -43.524       7.479     -10.393
  C      -43.377       6.453      -9.552
  O      -47.725       2.504      -8.047
  O      -47.694       4.888      -9.103
  H      -47.360       1.612      -8.180
  H      -43.282       7.259      -5.606
  H      -41.457       9.552      -8.837
  H      -44.171       7.449     -11.262
  H      -43.921       5.531      -9.717
  H      -41.442       5.332      -7.112
  H      -44.465       5.756      -6.714
  H      -44.407       3.738      -5.373
  H      -42.683       2.389      -7.117
  H      -44.476       2.270      -8.796
  H      -45.136       2.000      -7.176
  P      -42.570       3.292      -3.582
  C      -42.234       5.719      -2.657
  O      -43.077       4.599      -2.807
  O      -41.045       3.160      -3.098
  O      -43.355       2.039      -3.374
  H      -40.499       3.919      -3.358
  H      -42.847       6.593      -2.418
  H      -41.676       5.925      -3.573
  H      -41.534       5.544      -1.833
  H      -45.545       2.837     -11.974
  H      -44.784       3.759     -10.700
  H      -46.214       4.377     -11.491

 3  4  5  6  7  8  9  10  11  12  13  24  28  29  30  31  32 0
 6-311+G(2d,p)
 ****
 33  34 0
 6-311+G(2d,p)
 ****
 1  2  14  15  16  17  18  19  20  21  22  23  25  26  27 0
 3-21G
 ****
 35  36  37  38  39  40  41  42  43  44  45 0
 3-21G
 ****


