%nproc=1
%NoSave
%Mem=1900MB
#P OB98/GEN NMR

erre ene a

0 1
  C      100.698     428.094    1356.477
  O       99.947     429.034    1357.242
  P       98.753     428.532    1358.182
  C       97.019     427.600    1356.548
  O       97.395     428.690    1357.359
  C       95.542     427.687    1356.164
  O       94.704     427.493    1357.335
  C       95.148     429.042    1355.582
  O       95.555     429.176    1354.230
  C       93.621     429.009    1355.774
  O       92.985     428.258    1354.694
  C       93.483     428.272    1357.102
  N       89.900     430.362    1360.077
  C       89.810     429.618    1358.926
  N       90.819     429.137    1358.187
  C       92.006     429.494    1358.694
  C       92.265     430.262    1359.820
  C       91.118     430.686    1360.546
  N       91.185     431.389    1361.734
  N       93.601     430.448    1360.013
  C       94.187     429.793    1358.996
  N       93.254     429.156    1358.223
  O       98.746     429.089    1359.572
  O       98.960     426.926    1358.241
  H       93.474     427.439    1354.601
  H       99.117     426.662    1359.161
  H       88.802     429.397    1358.591
  H       95.246     429.754    1358.844
  H       92.662     427.533    1357.079
  H       93.174     430.015    1355.765
  H       95.565     429.856    1356.185
  H       95.302     426.868    1355.460
  H       97.195     426.675    1357.093
  H       90.316     431.509    1362.241
  H       92.054     431.371    1362.248
  H       97.640     427.578    1355.645
  P       96.810     430.107    1353.866
  C       95.620     432.397    1353.832
  O       96.224     431.357    1353.053
  O       97.969     429.430    1353.204
  O       97.217     430.768    1355.274
  H       98.179     430.927    1355.275
  H       94.603     432.069    1354.127
  H       95.544     433.280    1353.233
  H       96.207     432.604    1354.717
  H      101.448     428.610    1355.914
  H      100.044     427.575    1355.808
  H      101.166     427.392    1357.135

 3  4  5  6  7  8  9  10  11  12  22  25  29  30  31  32 0
 6-311+G(2d,p)
 ****
 33  36  37 0
 6-311+G(2d,p)
 ****
 1  2  13  14  15  16  17  18  19  20  21  23  24  26 0
 3-21G
 ****
 27  28  34  35  38  39  40  41  42  43  44  45  46  47  48 0
 3-21G
 ****


