%nproc=1
%NoSave
%Mem=1900MB
#P OB98/GEN NMR

erre ene a

0 1
  C      224.174    -899.142     152.641
  O      225.341    -898.322     152.655
  P      226.719    -898.952     152.136
  C      227.146    -896.732     150.786
  O      227.633    -897.702     151.688
  C      228.063    -895.502     150.811
  O      229.449    -895.902     150.716
  C      227.832    -894.512     149.679
  O      226.660    -893.722     149.899
  C      229.131    -893.742     149.698
  O      229.110    -892.722     150.719
  C      230.160    -894.822     150.044
  N      230.896    -895.342     148.869
  C      232.119    -894.742     148.609
  O      232.579    -893.812     149.290
  N      232.767    -895.182     147.504
  C      232.333    -896.132     146.638
  O      232.952    -896.502     145.634
  C      231.020    -896.722     146.949
  C      230.380    -896.312     148.044
  O      226.233    -899.622     150.749
  O      227.335    -899.912     153.097
  H      225.465    -899.152     150.364
  H      229.977    -892.272     150.712
  H      233.684    -894.762     147.290
  H      230.635    -897.502     146.286
  H      229.408    -896.722     148.310
  H      230.885    -894.452     150.795
  H      229.347    -893.212     148.739
  H      227.725    -895.042     148.726
  H      227.907    -895.002     151.800
  H      226.138    -896.432     151.075
  H      227.130    -897.162     149.771
  P      225.519    -893.822     148.745
  C      223.621    -893.012     150.380
  O      224.369    -892.792     149.175
  O      224.889    -895.272     149.021
  O      226.045    -893.652     147.340
  H      224.789    -895.452     149.992
  H      223.163    -892.062     150.662
  H      224.271    -893.372     151.172
  H      222.831    -893.772     150.174
  H      223.341    -898.583     153.014
  H      224.334    -900.000     153.260
  H      223.972    -899.457     151.639

 3  4  5  6  7  8  9  10  11  12  13  24  28  29  30  31  32 0
 6-311+G(2d,p)
 ****
 33  34 0
 6-311+G(2d,p)
 ****
 1  2  14  15  16  17  18  19  20  21  22  23  25  26  27 0
 3-21G
 ****
 35  36  37  38  39  40  41  42  43  44  45 0
 3-21G
 ****


