%nproc=1
%NoSave
%Mem=1900MB
#P OB98/GEN NMR

erre ene a

0 1
  C     2063.816     -62.083    1486.448
  O     2062.802     -61.192    1486.830
  H     2064.733     -61.864    1487.015
  H     2064.040     -61.964    1485.378
  H     2063.507     -63.118    1486.651
  P     2061.405     -61.275    1486.035
  C     2059.983     -62.388    1487.905
  O     2060.615     -62.534    1486.634
  C     2058.461     -62.348    1487.728
  O     2058.020     -63.586    1487.049
  C     2057.677     -62.314    1489.028
  O     2057.635     -61.010    1489.601
  C     2056.301     -62.786    1488.562
  O     2055.538     -61.705    1488.011
  C     2056.659     -63.833    1487.465
  N     2056.463     -65.194    1487.937
  C     2055.343     -65.853    1487.471
  O     2054.529     -65.311    1486.693
  N     2055.137     -67.110    1487.967
  C     2055.931     -67.759    1488.876
  O     2055.642     -68.866    1489.307
  C     2057.098     -67.018    1489.341
  C     2057.320     -65.768    1488.891
  O     2061.840     -61.770    1484.578
  O     2060.629     -60.009    1485.989
  H     2061.787     -61.015    1483.947
  H     2054.619     -62.048    1487.914
  H     2054.330     -67.596    1487.621
  H     2057.729     -67.474    1490.081
  H     2058.184     -65.216    1489.232
  H     2056.023     -63.679    1486.573
  H     2055.750     -63.218    1489.382
  H     2058.095     -63.047    1489.750
  H     2058.204     -61.494    1487.082
  H     2060.278     -61.442    1488.392
  H     2060.271     -63.211    1488.552
  P     2057.539     -60.885    1491.189
  C     2060.155     -60.895    1491.560
  O     2058.906     -61.537    1491.771
  O     2056.417     -61.998    1491.507
  O     2057.244     -59.498    1491.661
  H     2056.373     -62.702    1490.834
  H     2060.934     -61.471    1492.015
  H     2060.132     -59.919    1491.997
  H     2060.340     -60.811    1490.509

 6  7  8  9  10  11  12  13  14  15  16  27  31  32  33  34  35 0
 6-311+G(2d,p)
 ****
 36  37 0
 6-311+G(2d,p)
 ****
 1  2  3  4  5  17  18  19  20  21  22  23  24  25 0
 3-21G
 ****
 26  28  29  30  38  39  40  41  42  43  44  45 0
 3-21G
 ****


