%nproc=1
%NoSave
%Mem=1900MB
#P OB98/GEN NMR

erre ene a

0 1
  C     -896.780    -298.837    -592.111
  O     -895.950    -298.667    -593.268
  P     -895.040    -299.845    -593.861
  C     -895.830    -300.561    -596.207
  O     -895.930    -300.785    -594.798
  C     -897.060    -299.795    -596.731
  O     -897.120    -298.483    -596.140
  C     -897.050    -299.546    -598.238
  O     -897.390    -300.733    -598.947
  C     -898.070    -298.419    -598.357
  O     -899.410    -298.923    -598.360
  C     -897.790    -297.608    -597.071
  N     -896.990    -296.415    -597.332
  C     -897.670    -295.189    -597.250
  O     -898.890    -295.160    -597.043
  N     -896.960    -294.031    -597.438
  C     -895.700    -294.093    -597.749
  N     -895.030    -292.910    -597.918
  C     -894.980    -295.358    -597.923
  C     -895.670    -296.474    -597.698
  O     -894.250    -300.581    -592.828
  O     -894.040    -299.113    -594.892
  H     -900.000    -298.164    -598.479
  H     -893.200    -299.605    -594.923
  H     -893.930    -295.374    -598.217
  H     -895.220    -297.454    -597.799
  H     -898.740    -297.311    -596.591
  H     -897.940    -297.839    -599.273
  H     -896.070    -299.186    -598.558
  H     -897.950    -300.351    -596.442
  H     -895.570    -292.058    -597.779
  H     -895.770    -301.539    -596.710
  H     -894.060    -292.847    -598.156
  H     -894.910    -299.997    -596.411
  P     -896.260    -301.812    -599.279
  C     -897.500    -303.858    -598.347
  O     -896.380    -302.997    -598.202
  O     -894.880    -301.270    -599.466
  O     -896.790    -302.509    -600.630
  H     -896.010    -302.784    -601.168
  H     -897.270    -304.809    -597.849
  H     -897.710    -304.053    -599.400
  H     -898.370    -303.404    -597.866
  H     -897.292    -297.921    -591.902
  H     -896.172    -299.105    -591.272
  H     -897.495    -299.612    -592.295

 3  4  5  6  7  8  9  10  11  12  13  23  27  28  29  30  32 0
 6-311+G(2d,p)
 ****
 34  35 0
 6-311+G(2d,p)
 ****
 1  2  14  15  16  17  18  19  20  21  22  24  25  26 0
 3-21G
 ****
 31  33  36  37  38  39  40  41  42  43  44  45  46 0
 3-21G
 ****


