%nproc=1
%NoSave
%Mem=1900MB
#P OB98/GEN NMR

erre ene a

0 1
  C     -445.693     327.689    -234.863
  O     -444.467     328.318    -234.532
  P     -443.541     327.612    -233.428
  C     -443.349     327.803    -230.838
  O     -444.164     327.978    -231.995
  C     -444.183     327.983    -229.563
  O     -444.595     329.378    -229.461
  C     -445.456     327.119    -229.489
  O     -445.635     326.766    -228.106
  C     -446.519     328.097    -229.955
  O     -447.837     327.691    -229.632
  C     -446.033     329.369    -229.280
  N     -450.328     332.126    -229.738
  C     -450.045     331.003    -229.027
  N     -448.872     330.333    -228.950
  C     -447.933     330.944    -229.697
  C     -448.077     332.075    -230.475
  C     -449.341     332.685    -230.489
  N     -449.636     333.816    -231.207
  N     -446.888     332.378    -231.122
  C     -446.051     331.445    -230.738
  N     -446.623     330.567    -229.852
  O     -442.199     328.495    -233.460
  O     -443.262     326.161    -233.666
  H     -448.482     328.312    -230.018
  H     -441.411     327.928    -233.364
  H     -450.876     330.586    -228.448
  H     -445.014     331.358    -231.055
  H     -446.231     329.380    -228.196
  H     -446.477     328.176    -231.037
  H     -445.378     326.203    -230.098
  H     -443.529     327.781    -228.709
  H     -442.559     328.547    -230.844
  H     -450.614     334.059    -231.305
  H     -448.961     334.093    -231.918
  H     -442.889     326.808    -230.876
  P     -446.650     325.568    -227.746
  C     -449.114     325.508    -227.024
  O     -448.027     326.319    -227.414
  O     -446.134     325.178    -226.289
  O     -446.707     324.433    -228.729
  H     -446.051     325.947    -225.711
  H     -449.951     326.148    -226.731
  H     -448.833     324.882    -226.160
  H     -449.425     324.869    -227.860
  H     -446.201     328.267    -235.607
  H     -446.305     327.617    -233.988
  H     -445.499     326.708    -235.244

 3  4  5  6  7  8  9  10  11  12  22  25  29  30  31  32 0
 6-311+G(2d,p)
 ****
 33  36  37 0
 6-311+G(2d,p)
 ****
 1  2  13  14  15  16  17  18  19  20  21  23  24  26 0
 3-21G
 ****
 27  28  34  35  38  39  40  41  42  43  44  45  46  47  48 0
 3-21G
 ****


