%nproc=1
%NoSave
%Mem=1900MB
#P OB98/GEN NMR

erre ene a

0 1
  C      173.280    -378.805     -28.323
  O      173.885    -379.612     -29.313
  P      173.278    -381.058     -29.654
  C      172.444    -382.959     -28.086
  O      173.391    -381.939     -28.322
  C      172.691    -383.638     -26.735
  O      172.363    -382.694     -25.687
  C      171.824    -384.868     -26.466
  O      172.421    -385.630     -25.416
  C      170.543    -384.238     -25.973
  O      169.736    -385.161     -25.237
  C      171.050    -383.010     -25.165
  N      170.147    -381.859     -25.299
  C      170.455    -380.733     -24.551
  O      171.473    -380.641     -23.863
  N      169.515    -379.738     -24.550
  C      168.306    -379.793     -25.174
  O      167.366    -379.054     -24.917
  C      168.142    -380.904     -26.133
  C      169.043    -381.884     -26.132
  O      174.384    -381.685     -30.627
  O      171.930    -381.033     -30.289
  H      170.284    -385.459     -24.470
  H      174.129    -381.558     -31.558
  H      169.675    -378.985     -23.893
  H      167.256    -380.906     -26.764
  H      168.923    -382.742     -26.794
  H      171.148    -383.252     -24.100
  H      169.951    -383.902     -26.833
  H      171.657    -385.499     -27.347
  H      173.752    -383.890     -26.641
  H      172.489    -383.689     -28.902
  H      171.430    -382.543     -28.099
  P      172.130    -387.208     -25.373
  C      169.997    -388.634     -25.297
  O      170.560    -387.364     -25.061
  O      173.042    -388.019     -24.520
  O      172.225    -387.636     -26.917
  H      172.356    -388.601     -26.987
  H      169.155    -388.782     -24.610
  H      170.730    -389.440     -25.143
  H      169.623    -388.683     -26.324
  H      173.819    -377.885     -28.235
  H      173.296    -379.319     -27.385
  H      172.267    -378.600     -28.600

 3  4  5  6  7  8  9  10  11  12  13  23  28  29  30  31  32 0
 6-311+G(2d,p)
 ****
 33  34 0
 6-311+G(2d,p)
 ****
 1  2  14  15  16  17  18  19  20  21  22  24  25  26  27 0
 3-21G
 ****
 35  36  37  38  39  40  41  42  43  44  45 0
 3-21G
 ****


