%nproc=1
%NoSave
%Mem=1900MB
#P OB98/GEN NMR

erre ene a

0 1
  C     -315.281     619.749     -22.874
  O     -314.390     620.286     -23.831
  H     -314.815     618.869     -22.420
  H     -316.208     619.444     -23.366
  H     -315.502     620.475     -22.088
  P     -314.656     621.765     -24.383
  C     -315.074     621.122     -26.849
  O     -314.216     621.778     -25.928
  C     -314.292     620.151     -27.743
  O     -313.278     620.881     -28.475
  C     -313.561     619.114     -26.883
  O     -313.379     617.881     -27.573
  C     -312.200     619.758     -26.656
  O     -311.187     618.817     -26.318
  C     -311.988     620.461     -27.998
  N     -307.234     622.134     -27.234
  C     -307.743     620.858     -27.103
  N     -306.874     619.905     -26.693
  N     -308.994     620.546     -27.336
  C     -309.762     621.612     -27.663
  C     -309.379     622.928     -27.803
  C     -307.987     623.253     -27.579
  O     -307.480     624.372     -27.664
  N     -310.442     623.732     -28.126
  C     -311.469     622.907     -28.181
  N     -311.102     621.607     -27.918
  O     -313.507     622.641     -23.690
  O     -316.017     622.328     -24.107
  H     -310.376     619.315     -26.125
  H     -313.782     623.572     -23.631
  H     -306.261     622.319     -27.059
  H     -312.489     623.190     -28.409
  H     -311.562     619.766     -28.733
  H     -312.293     620.455     -25.818
  H     -305.957     620.130     -26.336
  H     -314.076     618.922     -25.943
  H     -307.283     619.048     -26.316
  H     -314.956     619.699     -28.479
  H     -315.543     621.899     -27.461
  H     -315.871     620.599     -26.318
  P     -314.656     616.917     -27.712
  C     -313.402     614.613     -27.769
  O     -314.175     615.580     -28.456
  O     -315.570     617.661     -28.794
  O     -315.374     616.685     -26.430
  H     -316.335     618.079     -28.354
  H     -313.181     613.799     -28.428
  H     -313.952     614.250     -26.926
  H     -312.489     615.059     -27.434

 6  7  8  9  10  11  12  13  14  15  26  29  33  34 0
 6-311+G(2d,p)
 ****
 36  38  39  40  41 0
 6-311+G(2d,p)
 ****
 1  2  3  4  5  16  17  18  19  20  21  22  23  24  25 0
 3-21G
 ****
 27  28  30  31  32  35  37  42  43  44  45  46  47 0
 3-21G
 ****
 48  49 0
 3-21G
 ****


