%nproc=1
%NoSave
%Mem=1900MB
#P OB98/GEN NMR

erre ene a

0 1
  C       79.355      51.110    -134.979
  O       78.690      52.199    -134.327
  P       78.341      53.472    -135.248
  C       80.459      54.956    -134.998
  O       79.722      54.062    -135.823
  C       80.768      56.271    -135.716
  O       81.361      57.201    -134.775
  C       81.739      56.148    -136.896
  O       81.329      57.061    -137.925
  C       83.049      56.662    -136.329
  O       83.935      57.118    -137.346
  C       82.534      57.753    -135.393
  N       85.568      61.473    -133.800
  C       84.620      61.476    -134.802
  N       84.477      62.629    -135.491
  N       83.876      60.444    -135.102
  C       84.105      59.370    -134.309
  C       85.010      59.246    -133.277
  C       85.853      60.383    -132.986
  O       86.749      60.425    -132.144
  N       84.952      57.997    -132.706
  C       84.022      57.367    -133.396
  N       83.484      58.155    -134.383
  O       77.861      54.569    -134.186
  O       77.288      53.204    -136.269
  H       83.435      57.741    -137.905
  H       76.964      54.882    -134.413
  H       86.127      62.288    -133.624
  H       83.715      56.342    -133.242
  H       82.233      58.648    -135.953
  H       83.547      55.856    -135.775
  H       84.969      63.480    -135.271
  H       81.825      55.136    -137.307
  H       83.754      62.666    -136.200
  H       79.820      56.710    -136.049
  H       81.399      54.481    -134.700
  H       79.882      55.149    -134.088
  P       80.191      56.540    -138.930
  C       81.737      55.516    -140.755
  O       80.827      55.286    -139.697
  O       80.137      57.682    -140.050
  O       78.865      56.311    -138.285
  H       79.251      57.714    -140.456
  H       82.059      56.561    -140.803
  H       81.257      55.250    -141.700
  H       82.615      54.883    -140.611
  H       79.534      50.327    -134.272
  H       80.288      51.450    -135.379
  H       78.740      50.740    -135.773

 3  4  5  6  7  8  9  10  11  12  23  26  30  31  33  0
 6-311+G(2d,p)
 ****
 35  36  37  38 0
 6-311+G(2d,p)
 ****
 1  2  13  14  15  16  17  18  19  20  21  22  24  25  27  28  29 0
 3-21G
 ****
 32  34  39  40  41  42  43  44  45  46  47  48  49 0
 3-21G
 ****


