%nproc=1
%NoSave
%Mem=1900MB
#P OB98/GEN NMR

erre ene a

0 1
  C       12.501     -45.939     618.122
  O       13.780     -45.503     618.531
  H       12.090     -45.206     617.425
  H       11.839     -46.008     618.989
  H       12.556     -46.908     617.620
  P       14.740     -46.532     619.294
  C       14.949     -48.300     617.425
  O       15.605     -47.288     618.177
  C       15.970     -49.215     616.736
  O       15.282     -50.386     616.225
  C       16.625     -48.523     615.537
  O       17.936     -49.018     615.282
  C       15.716     -48.915     614.385
  O       16.358     -48.839     613.114
  C       15.310     -50.331     614.789
  N       12.809     -52.779     611.082
  C       14.141     -52.426     611.151
  N       14.911     -52.776     610.091
  N       14.670     -51.771     612.152
  C       13.771     -51.427     613.105
  C       12.421     -51.698     613.139
  C       11.859     -52.455     612.040
  O       10.679     -52.772     611.919
  N       11.833     -51.178     614.266
  C       12.822     -50.589     614.909
  N       14.023     -50.734     614.256
  O       13.738     -47.681     619.792
  O       15.527     -45.959     620.433
  H       16.685     -47.927     613.007
  H       14.126     -48.166     620.543
  H       12.460     -53.308     610.302
  H       12.725     -50.062     615.848
  H       16.053     -51.060     614.440
  H       14.871     -48.220     614.362
  H       14.507     -53.099     609.227
  H       16.671     -47.442     615.649
  H       15.789     -52.264     609.982
  H       16.706     -49.574     617.466
  H       14.327     -47.793     616.685
  H       14.284     -48.878     618.068
  P       19.193     -48.139     615.747
  C       19.434     -48.373     618.373
  O       19.827     -48.758     617.075
  O       18.535     -46.770     616.242
  O       20.216     -47.914     614.681
  H       18.816     -46.031     615.671
  H       19.999     -48.925     619.095
  H       18.392     -48.576     618.505
  H       19.613     -47.326     618.504

 6  7  8  9  10  11  12  13  14  15  26  29  33  34 0
 6-311+G(2d,p)
 ****
 36  38  39  40  41 0
 6-311+G(2d,p)
 ****
 1  2  3  4  5  16  17  18  19  20  21  22  23  24  25 0
 3-21G
 ****
 27  28  30  31  32  35  37  42  43  44  45  46  47 0
 3-21G
 ****
 48  49 0
 3-21G
 ****


