%nproc=1
%NoSave
%Mem=1900MB
#P OB98/GEN NMR

erre ene a

0 1
  C      -14.815    -233.241     238.242
  O      -16.175    -233.610     238.213
  P      -16.653    -234.901     237.391
  C      -15.821    -233.777     235.230
  O      -16.918    -234.402     235.888
  C      -15.793    -234.178     233.758
  O      -15.642    -235.613     233.610
  C      -17.075    -233.858     233.003
  O      -17.403    -232.498     232.827
  C      -16.898    -234.697     231.748
  O      -16.056    -234.044     230.799
  C      -16.198    -235.957     232.317
  N      -17.109    -237.096     232.404
  C      -17.290    -237.821     231.231
  O      -16.733    -237.550     230.169
  N      -18.169    -238.868     231.306
  C      -18.903    -239.222     232.400
  O      -19.707    -240.145     232.384
  C      -18.682    -238.407     233.605
  C      -17.809    -237.398     233.555
  O      -17.782    -235.660     238.001
  O      -15.307    -235.754     237.232
  H      -15.630    -234.736     230.258
  H      -14.589    -235.297     236.759
  H      -18.325    -239.399     230.465
  H      -19.238    -238.671     234.495
  H      -17.631    -236.782     234.430
  H      -15.353    -236.245     231.679
  H      -17.854    -234.893     231.251
  H      -17.916    -234.292     233.561
  H      -14.922    -233.712     233.291
  H      -14.890    -234.101     235.705
  H      -15.895    -232.690     235.346
  P      -18.906    -231.962     232.698
  C      -19.588    -232.682     230.302
  O      -19.193    -231.629     231.156
  O      -19.351    -230.961     233.710
  O      -19.747    -233.317     232.901
  H      -20.597    -233.100     233.327
  H      -19.695    -232.286     229.288
  H      -20.550    -233.092     230.620
  H      -18.831    -233.471     230.290
  H      -14.697    -232.360     238.838
  H      -14.477    -233.046     237.246
  H      -14.238    -234.037     238.664

 3  4  5  6  7  8  9  10  11  12  13  23  28  29  30  31  32 0
 6-311+G(2d,p)
 ****
 33  34 0
 6-311+G(2d,p)
 ****
 1  2  14  15  16  17  18  19  20  21  22  24  25  26  27 0
 3-21G
 ****
 35  36  37  38  39  40  41  42  43  44  45 0
 3-21G
 ****


