%nproc=1
%NoSave
%Mem=1900MB
#P OB98/GEN NMR

erre ene a

0 1
  C       57.729    -180.677     -52.134
  O       57.043    -180.363     -53.323
  P       55.462    -180.484     -53.496
  C       53.727    -182.406     -53.880
  O       55.090    -182.028     -53.720
  C       53.515    -183.882     -53.511
  O       53.887    -184.069     -52.121
  C       52.036    -184.292     -53.638
  O       51.837    -185.575     -54.218
  C       51.501    -184.072     -52.226
  O       50.303    -184.783     -51.956
  C       52.711    -184.451     -51.374
  N       51.874    -184.992     -46.385
  C       51.927    -185.962     -47.370
  N       51.532    -187.202     -47.005
  N       52.303    -185.722     -48.602
  C       52.561    -184.415     -48.847
  C       52.541    -183.368     -47.952
  C       52.158    -183.651     -46.590
  O       51.985    -182.804     -45.712
  N       52.790    -182.167     -48.570
  C       52.927    -182.482     -49.844
  N       52.762    -183.832     -50.065
  O       54.801    -179.468     -54.371
  O       54.949    -180.233     -51.982
  H       49.674    -184.584     -52.675
  H       54.092    -179.764     -52.044
  H       51.497    -185.224     -45.474
  H       53.115    -181.776     -50.646
  H       52.757    -185.527     -51.202
  H       51.269    -183.005     -52.126
  H       51.100    -187.380     -46.109
  H       51.509    -183.620     -54.325
  H       51.325    -187.860     -47.754
  H       54.177    -184.504     -54.124
  H       53.484    -182.244     -54.937
  H       53.076    -181.762     -53.282
  P       50.590    -186.109     -55.064
  C       48.293    -187.145     -54.575
  O       49.368    -186.380     -54.063
  O       51.002    -187.582     -55.529
  O       50.240    -185.272     -56.253
  H       50.696    -187.737     -56.445
  H       47.428    -187.026     -53.914
  H       48.574    -188.202     -54.604
  H       48.020    -186.812     -55.581
  H       58.777    -180.513     -52.273
  H       57.558    -181.703     -51.884
  H       57.373    -180.053     -51.341

 3  4  5  6  7  8  9  10  11  12  23  26  30  31 0
 6-311+G(2d,p)
 ****
 33  35  36  37  38 0
 6-311+G(2d,p)
 ****
 1  2  13  14  15  16  17  18  19  20  21  22  24  25 0
 3-21G
 ****
 27  28  29  32  34  39  40  41  42  43  44  45  46  47  48  49 0
 3-21G
 ****


