%nproc=1
%NoSave
%Mem=1900MB
#P OB98/GEN NMR

erre ene a

0 1
  C      147.196    -185.791     -12.886
  O      148.416    -185.942     -12.160
  P      148.904    -187.407     -11.739
  C      148.663    -186.828      -9.231
  O      148.359    -187.748     -10.272
  C      148.492    -187.506      -7.866
  O      147.111    -187.873      -7.629
  C      149.268    -188.812      -7.751
  O      150.675    -188.718      -7.705
  C      148.574    -189.496      -6.584
  O      149.072    -189.029      -5.330
  C      147.107    -189.048      -6.785
  N      146.264    -190.102      -7.349
  C      146.364    -191.350      -6.739
  O      147.131    -191.593      -5.814
  N      145.561    -192.332      -7.265
  C      144.723    -192.198      -8.334
  O      144.046    -193.118      -8.776
  C      144.685    -190.860      -8.950
  C      145.442    -189.889      -8.438
  O      150.352    -187.697     -11.965
  O      148.000    -188.357     -12.671
  H      150.039    -189.183      -5.327
  H      148.569    -189.086     -12.993
  H      145.614    -193.241      -6.832
  H      144.030    -190.720      -9.801
  H      145.429    -188.898      -8.876
  H      146.665    -188.743      -5.829
  H      148.721    -190.580      -6.603
  H      149.044    -189.414      -8.645
  H      148.785    -186.798      -7.088
  H      148.015    -185.956      -9.304
  H      149.689    -186.464      -9.365
  P      151.626    -189.106      -8.933
  C      151.543    -191.671      -8.558
  O      151.249    -190.588      -9.414
  O      153.077    -188.774      -8.809
  O      150.996    -188.211     -10.112
  H      151.716    -187.940     -10.712
  H      151.237    -192.597      -9.055
  H      150.990    -191.573      -7.620
  H      152.617    -191.719      -8.358
  H      147.024    -184.753     -13.083
  H      146.386    -186.183     -12.308
  H      147.264    -186.323     -13.812

 3  4  5  6  7  8  9  10  11  12  13  23  28  29  30  31  32 0
 6-311+G(2d,p)
 ****
 33  34 0
 6-311+G(2d,p)
 ****
 1  2  14  15  16  17  18  19  20  21  22  24  25  26  27 0
 3-21G
 ****
 35  36  37  38  39  40  41  42  43  44  45 0
 3-21G
 ****


