%nproc=1
%NoSave
%Mem=1900MB
#P OB98/GEN NMR

erre ene a

0 1
  C      173.634     -36.897       9.702
  O      174.195     -35.921      10.587
  P      173.665     -34.415      10.402
  C      174.398     -34.592       7.921
  O      173.394     -34.174       8.838
  C      174.618     -33.550       6.819
  O      173.498     -33.532       5.885
  C      174.781     -32.117       7.345
  O      175.711     -31.452       6.479
  C      173.399     -31.524       7.132
  O      173.433     -30.097       7.150
  C      173.044     -32.162       5.789
  N      169.398     -29.315       3.766
  C      170.722     -29.017       4.018
  N      171.151     -27.794       3.631
  N      171.554     -29.842       4.602
  C      170.993     -31.041       4.899
  C      169.702     -31.462       4.684
  C      168.785     -30.528       4.068
  O      167.603     -30.743       3.817
  N      169.520     -32.765       5.099
  C      170.690     -33.093       5.620
  N      171.629     -32.107       5.476
  O      174.966     -33.533      10.708
  O      172.530     -34.063      11.307
  H      173.836     -29.822       8.001
  H      174.925     -33.178      11.616
  H      168.798     -28.633       3.331
  H      170.917     -34.037       6.090
  H      173.564     -31.682       4.951
  H      172.714     -31.861       7.919
  H      170.579     -27.129       3.130
  H      175.114     -32.050       8.385
  H      172.130     -27.566       3.766
  H      175.513     -33.836       6.252
  H      174.113     -35.541       7.463
  H      175.325     -34.785       8.472
  P      177.241     -31.364       6.948
  C      177.460     -28.907       7.740
  O      177.318     -30.266       8.110
  O      177.961     -30.649       5.708
  O      177.879     -32.684       7.249
  H      178.842     -31.045       5.565
  H      177.041     -28.281       8.531
  H      176.939     -28.684       6.803
  H      178.520     -28.671       7.626
  H      174.057     -37.856       9.915
  H      173.852     -36.628       8.690
  H      172.574     -36.936       9.840

 3  4  5  6  7  8  9  10  11  12  23  26  30  31 0
 6-311+G(2d,p)
 ****
 33  35  36  37  38 0
 6-311+G(2d,p)
 ****
 1  2  13  14  15  16  17  18  19  20  21  22  24  25 0
 3-21G
 ****
 27  28  29  32  34  39  40  41  42  43  44  45  46  47  48  49 0
 3-21G
 ****


