%nproc=1
%NoSave
%Mem=1900MB
#P OB98/GEN NMR

erre ene a

0 1
  C      220.613      37.030    -229.287
  O      221.482      36.240    -230.072
  H      221.192      37.509    -228.494
  H      219.843      36.402    -228.831
  H      220.145      37.806    -229.901
  P      220.838      35.460    -231.324
  C      221.121      37.432    -233.004
  O      221.525      36.120    -232.623
  C      222.306      38.205    -233.590
  O      223.265      38.478    -232.536
  C      223.037      37.448    -234.707
  O      223.341      38.353    -235.773
  C      224.309      36.947    -234.042
  O      225.366      36.751    -234.982
  C      224.560      38.024    -232.982
  N      225.355      37.516    -231.863
  C      226.727      37.789    -231.886
  O      227.214      38.425    -232.827
  N      227.519      37.295    -230.883
  C      226.998      36.539    -229.963
  N      227.843      36.063    -229.005
  C      225.565      36.186    -229.921
  C      224.809      36.704    -230.890
  O      219.341      36.021    -231.363
  O      220.928      33.972    -231.261
  H      226.107      36.303    -234.512
  H      218.765      35.474    -231.951
  H      225.183      35.539    -229.146
  H      223.745      36.496    -230.942
  H      225.084      38.889    -233.421
  H      224.108      35.984    -233.555
  H      222.455      36.616    -235.104
  H      221.943      39.180    -233.943
  H      228.819      36.319    -229.070
  H      220.739      37.956    -232.125
  H      227.554      35.444    -228.258
  H      220.324      37.354    -233.753
  P      222.548      38.110    -237.148
  C      220.211      39.139    -236.681
  O      221.478      39.299    -237.307
  O      221.647      36.820    -236.839
  O      223.443      37.907    -238.327
  H      222.067      36.019    -237.203
  H      219.608      40.002    -236.871
  H      220.347      39.024    -235.626
  H      219.725      38.271    -237.075

 6  7  8  9  10  11  12  13  14  15  16  26  30  31  32  33  35 0
 6-311+G(2d,p)
 ****
 37  38 0
 6-311+G(2d,p)
 ****
 1  2  3  4  5  17  18  19  20  21  22  23  24  25 0
 3-21G
 ****
 27  28  29  34  36  39  40  41  42  43  44  45  46 0
 3-21G
 ****


