%nproc=1
%NoSave
%Mem=1900MB
#P OB98/GEN NMR

erre ene a

0 1
  C      363.748      -6.949      40.658
  O      363.102      -7.360      39.449
  P      364.024      -7.762      38.193
  C      364.279      -5.639      36.725
  O      364.865      -6.467      37.733
  C      365.068      -4.332      36.571
  O      364.794      -3.474      37.706
  C      366.599      -4.508      36.538
  O      367.227      -4.730      35.275
  C      367.060      -3.132      37.020
  O      367.073      -2.203      35.910
  C      365.988      -2.711      38.030
  N      367.086      -0.465      42.492
  C      366.727       0.035      41.282
  N      366.449      -0.630      40.144
  C      366.560      -1.954      40.335
  C      366.927      -2.621      41.499
  C      367.199      -1.809      42.628
  N      367.573      -2.325      43.845
  N      366.940      -3.982      41.304
  C      366.616      -4.142      40.027
  N      366.366      -2.946      39.400
  O      363.334      -8.501      37.098
  O      365.155      -8.670      38.880
  H      367.802      -2.479      35.330
  H      365.379      -9.405      38.268
  H      366.655       1.126      41.224
  H      366.560      -5.103      39.522
  H      365.727      -1.653      37.938
  H      368.074      -3.154      37.422
  H      366.916      -5.273      37.251
  H      364.739      -3.813      35.659
  H      363.240      -5.411      36.998
  H      367.791      -1.673      44.583
  H      367.707      -3.318      43.947
  H      364.242      -6.233      35.803
  P      368.332      -5.874      35.089
  C      370.413      -4.463      35.861
  O      369.500      -5.516      36.138
  O      368.803      -6.077      33.683
  O      367.631      -7.148      35.746
  H      367.526      -7.092      36.715
  H      370.976      -4.237      36.776
  H      369.880      -3.557      35.551
  H      371.111      -4.772      35.077
  H      363.009      -6.716      41.396
  H      364.346      -6.083      40.466
  H      364.372      -7.741      41.016

 3  4  5  6  7  8  9  10  11  12  22  25  29  30  31  32 0
 6-311+G(2d,p)
 ****
 33  36  37 0
 6-311+G(2d,p)
 ****
 1  2  13  14  15  16  17  18  19  20  21  23  24  26 0
 3-21G
 ****
 27  28  34  35  38  39  40  41  42  43  44  45  46  47  48 0
 3-21G
 ****


