%nproc=1
%NoSave
%Mem=1900MB
#P OB98/GEN NMR

erre ene a

0 1
  C     -266.871    -310.889      37.371
  O     -266.932    -309.992      38.491
  P     -266.772    -308.405      38.321
  C     -268.867    -307.227      37.409
  O     -268.177    -307.658      38.580
  C     -270.395    -307.242      37.567
  O     -270.895    -308.608      37.678
  C     -270.928    -306.479      38.791
  O     -272.210    -305.972      38.409
  C     -271.074    -307.587      39.824
  O     -271.935    -307.256      40.900
  C     -271.586    -308.726      38.936
  N     -273.845    -312.756      41.161
  C     -274.354    -311.681      40.513
  N     -273.692    -310.677      39.909
  C     -272.361    -310.855      39.993
  C     -271.691    -311.906      40.620
  C     -272.498    -312.884      41.240
  N     -271.982    -313.949      41.947
  N     -270.318    -311.735      40.527
  C     -270.159    -310.601      39.866
  N     -271.368    -310.039      39.515
  O     -266.090    -307.992      37.054
  O     -265.881    -307.960      39.582
  H     -271.831    -307.939      41.595
  H     -265.179    -307.354      39.285
  H     -275.440    -311.636      40.469
  H     -269.217    -310.137      39.636
  H     -272.666    -308.615      38.740
  H     -270.080    -307.821      40.243
  H     -270.274    -305.673      39.121
  H     -270.827    -306.832      36.642
  H     -268.581    -307.882      36.570
  H     -272.633    -314.544      42.431
  H     -270.983    -313.992      42.118
  H     -268.534    -306.212      37.159
  P     -272.491    -304.397      38.280
  C     -272.096    -303.803      35.815
  O     -273.064    -304.156      36.799
  O     -271.345    -303.520      38.668
  O     -273.768    -304.141      39.214
  H     -273.824    -303.187      39.436
  H     -271.806    -302.756      35.942
  H     -272.536    -303.943      34.824
  H     -271.210    -304.440      35.899
  H     -267.001    -311.895      37.712
  H     -265.919    -310.796      36.891
  H     -267.647    -310.645      36.676

 3  4  5  6  7  8  9  10  11  12  22  25  29  30  31  32 0
 6-311+G(2d,p)
 ****
 33  36  37 0
 6-311+G(2d,p)
 ****
 1  2  13  14  15  16  17  18  19  20  21  23  24  26 0
 3-21G
 ****
 27  28  34  35  38  39  40  41  42  43  44  45  46  47  48 0
 3-21G
 ****


