%nproc=1
%NoSave
%Mem=1900MB
#P OB98/GEN NMR

erre ene a

0 1
  C      792.948    -620.786    -566.506
  O      793.310    -621.047    -565.160
  P      792.817    -620.012    -564.038
  C      792.971    -617.420    -563.816
  O      793.447    -618.594    -564.464
  C      794.143    -616.542    -563.351
  O      795.114    -616.436    -564.408
  C      793.747    -615.123    -563.000
  O      793.220    -615.017    -561.678
  C      795.118    -614.436    -563.075
  O      795.876    -614.693    -561.877
  C      795.757    -615.142    -564.268
  N      797.225    -610.993    -566.888
  C      797.500    -611.409    -565.641
  N      797.057    -612.524    -565.011
  C      796.212    -613.214    -565.810
  C      795.808    -612.880    -567.087
  C      796.370    -611.726    -567.655
  N      796.105    -611.317    -568.942
  N      794.947    -613.841    -567.589
  C      794.846    -614.724    -566.613
  N      795.604    -614.413    -565.513
  O      793.676    -620.421    -562.757
  O      791.357    -620.007    -563.777
  H      795.383    -614.270    -561.144
  H      793.217    -620.119    -561.940
  H      798.169    -610.769    -565.064
  H      794.230    -615.626    -566.657
  H      796.836    -615.315    -564.136
  H      795.039    -613.351    -563.174
  H      793.089    -614.684    -563.742
  H      794.606    -617.052    -562.491
  H      792.380    -617.716    -562.938
  H      796.676    -610.574    -569.316
  H      795.637    -611.975    -569.554
  H      792.329    -616.858    -564.511
  P      792.342    -613.712    -561.364
  C      792.862    -611.146    -561.304
  O      793.317    -612.477    -561.602
  O      792.175    -613.762    -559.769
  O      791.040    -613.670    -562.075
  H      791.375    -613.303    -559.488
  H      793.734    -610.494    -561.216
  H      792.320    -611.143    -560.326
  H      792.209    -610.818    -562.091
  H      793.343    -621.554    -567.137
  H      793.346    -619.839    -566.805
  H      791.882    -620.768    -566.591

 3  4  5  6  7  8  9  10  11  12  22  25  29  30  31  32 0
 6-311+G(2d,p)
 ****
 33  36  37 0
 6-311+G(2d,p)
 ****
 1  2  13  14  15  16  17  18  19  20  21  23  24  26 0
 3-21G
 ****
 27  28  34  35  38  39  40  41  42  43  44  45  46  47  48 0
 3-21G
 ****


