%nproc=1
%NoSave
%Mem=1900MB
#P OB98/GEN NMR

erre ene a

0 1
  C       65.144     227.669      20.442
  O       65.740     226.366      20.550
  P       65.995     225.510      19.210
  C       68.137     226.394      17.990
  O       67.573     225.477      18.918
  C       69.022     225.653      16.985
  O       69.443     226.543      15.926
  C       70.308     225.091      17.569
  O       70.080     223.911      18.322
  C       71.137     224.861      16.314
  O       70.793     223.608      15.694
  C       70.705     226.046      15.424
  N       71.712     227.102      15.369
  C       72.526     227.122      14.241
  O       72.467     226.269      13.352
  N       73.444     228.136      14.185
  C       73.665     229.070      15.154
  O       74.520     229.946      15.054
  C       72.831     228.949      16.358
  C       71.914     227.982      16.412
  O       65.470     226.510      18.072
  O       65.286     224.200      19.133
  H       69.819     223.534      15.735
  H       65.158     225.994      17.305
  H       74.026     228.184      13.363
  H       72.996     229.659      17.162
  H       71.284     227.880      17.294
  H       70.503     225.696      14.404
  H       72.210     224.832      16.519
  H       70.798     225.853      18.188
  H       68.420     224.848      16.531
  H       68.748     227.127      18.533
  H       67.328     226.924      17.477
  P       70.829     223.799      19.740
  C       69.198     225.340      21.080
  O       69.685     224.038      20.838
  O       71.697     225.147      19.730
  O       71.626     222.543      19.879
  H       71.240     225.870      19.272
  H       69.201     225.947      20.168
  H       69.819     225.822      21.840
  H       68.176     225.267      21.453
  H       65.046     228.098      21.417
  H       64.178     227.583      19.991
  H       65.765     228.296      19.837

 3  4  5  6  7  8  9  10  11  12  13  23  28  29  30  31  32 0
 6-311+G(2d,p)
 ****
 33  34 0
 6-311+G(2d,p)
 ****
 1  2  14  15  16  17  18  19  20  21  22  24  25  26 0
 3-21G
 ****
 27  35  36  37  38  39  40  41  42  43  44  45 0
 3-21G
 ****


