%nproc=1
%NoSave
%Mem=1900MB
#P OB98/GEN NMR

erre ene a

0 1
  C      171.099      15.724      77.411
  O      170.293      14.991      78.312
  H      172.091      15.848      77.849
  H      170.660      16.711      77.246
  H      171.197      15.195      76.458
  P      168.910      14.410      77.739
  C      169.755      11.971      78.000
  O      169.243      12.965      77.126
  C      170.166      10.733      77.211
  O      170.750       9.746      78.089
  C      169.017      10.037      76.489
  O      168.737      10.652      75.238
  C      169.605       8.650      76.293
  O      170.550       8.671      75.201
  C      170.346       8.429      77.620
  N      169.183       4.017      79.835
  C      169.998       4.276      78.750
  N      170.580       3.206      78.167
  N      170.221       5.474      78.274
  C      169.554       6.445      78.941
  C      168.715       6.314      80.025
  C      168.492       4.987      80.549
  O      167.787       4.707      81.515
  N      168.222       7.526      80.429
  C      168.744       8.386      79.579
  N      169.558       7.781      78.654
  O      168.653      15.322      76.447
  O      167.757      14.468      78.683
  H      171.174       9.398      75.378
  H      167.977      15.992      76.663
  H      169.038       3.076      80.155
  H      168.571       9.454      79.594
  H      171.256       7.831      77.493
  H      168.850       7.903      76.043
  H      170.434       2.255      78.469
  H      168.122       9.972      77.118
  H      171.184       3.373      77.373
  H      170.945      11.034      76.497
  H      168.980      11.700      78.726
  H      170.620      12.378      78.534
  P      167.238      10.577      74.674
  C      166.423      12.537      76.163
  O      166.277      11.167      75.818
  O      166.932       9.006      74.702
  O      167.041      11.144      73.311
  H      166.865       8.664      73.789
  H      165.723      12.788      76.933
  H      166.238      13.144      75.301
  H      167.418      12.712      76.515

 6  7  8  9  10  11  12  13  14  15  26  29  33  34 0
 6-311+G(2d,p)
 ****
 36  38  39  40  41 0
 6-311+G(2d,p)
 ****
 1  2  3  4  5  16  17  18  19  20  21  22  23  24  25 0
 3-21G
 ****
 27  28  30  31  32  35  37  42  43  44  45  46  47 0
 3-21G
 ****
 48  49 0
 3-21G
 ****


