%nproc=1
%NoSave
%Mem=1900MB
#P OB98/GEN NMR

erre ene a

0 1
  C     -357.859     340.814     -45.354
  O     -357.786     339.458     -45.748
  H     -358.590     340.905     -44.549
  H     -358.184     341.432     -46.195
  H     -356.891     341.166     -44.986
  P     -356.652     339.019     -46.791
  C     -354.396     339.058     -45.535
  O     -355.509     338.277     -45.945
  C     -353.184     338.165     -45.245
  O     -351.981     339.003     -45.229
  C     -353.244     337.435     -43.888
  O     -352.522     336.203     -44.045
  C     -352.487     338.407     -43.003
  O     -352.155     337.861     -41.752
  C     -351.337     338.775     -43.956
  N     -350.546     339.932     -43.564
  C     -349.370     339.706     -42.859
  O     -348.947     338.590     -42.546
  N     -348.660     340.824     -42.505
  C     -348.995     342.115     -42.794
  O     -348.306     343.075     -42.482
  C     -350.256     342.293     -43.536
  C     -350.954     341.215     -43.883
  O     -356.165     340.087     -47.713
  O     -357.330     337.810     -47.598
  H     -357.636     338.130     -48.467
  H     -351.503     338.442     -41.310
  H     -347.802     340.673     -42.000
  H     -350.556     343.302     -43.772
  H     -351.883     341.315     -44.445
  H     -350.672     337.912     -44.083
  H     -353.112     339.283     -42.792
  H     -354.262     337.220     -43.561
  H     -353.061     337.457     -46.073
  H     -354.678     339.603     -44.624
  H     -354.155     339.780     -46.321
  P     -353.231     334.794     -44.338
  C     -353.190     334.677     -46.921
  O     -352.629     334.203     -45.704
  O     -354.724     334.849     -44.317
  O     -352.676     333.798     -43.212
  H     -353.327     333.092     -43.051
  H     -352.700     334.205     -47.747
  H     -353.057     335.737     -46.986
  H     -354.234     334.446     -46.946

 6  7  8  9  10  11  12  13  14  15  16  27  31  32  33  34  35 0
 6-311+G(2d,p)
 ****
 36  37 0
 6-311+G(2d,p)
 ****
 1  2  3  4  5  17  18  19  20  21  22  23  24  25 0
 3-21G
 ****
 26  28  29  30  38  39  40  41  42  43  44  45 0
 3-21G
 ****


