%nproc=1
%NoSave
%Mem=1900MB
#P OB98/GEN NMR

erre ene a

0 1
  C      210.891     235.469      23.130
  O      210.451     234.395      23.937
  H      211.144     235.081      22.140
  H      211.783     235.924      23.569
  H      210.100     236.218      23.025
  P      209.852     234.777      25.379
  C      211.209     233.182      26.961
  O      210.003     233.451      26.268
  C      211.297     231.699      27.325
  O      210.139     231.346      28.120
  C      211.336     230.767      26.116
  O      212.210     229.676      26.409
  C      209.905     230.270      26.003
  O      209.828     229.022      25.315
  C      209.472     230.240      27.475
  N      208.023     230.329      27.630
  C      207.349     229.142      27.941
  O      207.975     228.088      28.052
  N      205.985     229.169      28.077
  C      205.338     230.270      27.850
  N      203.984     230.226      27.981
  C      206.001     231.532      27.466
  C      207.327     231.493      27.385
  O      208.284     234.854      25.070
  O      210.430     236.017      25.972
  H      208.899     228.702      25.369
  H      207.968     234.148      24.482
  H      205.416     232.420      27.272
  H      207.898     232.377      27.118
  H      209.815     229.316      27.959
  H      209.301     230.997      25.445
  H      211.661     231.258      25.198
  H      212.174     231.552      27.967
  H      203.566     229.338      28.226
  H      211.266     233.785      27.873
  H      203.378     231.007      27.777
  H      212.044     233.464      26.312
  P      213.678     229.654      25.769
  C      213.688     227.262      24.808
  O      214.228     228.146      25.778
  O      214.631     230.676      26.292
  O      213.390     229.900      24.206
  H      214.095     230.479      23.858
  H      214.134     226.296      24.919
  H      213.894     227.639      23.828
  H      212.630     227.185      24.946

 6  7  8  9  10  11  12  13  14  15  16  26  30  31  32  33  35 0
 6-311+G(2d,p)
 ****
 37  38 0
 6-311+G(2d,p)
 ****
 1  2  3  4  5  17  18  19  20  21  22  23  24  25 0
 3-21G
 ****
 27  28  29  34  36  39  40  41  42  43  44  45  46 0
 3-21G
 ****


