%nproc=1
%NoSave
%Mem=1900MB
#P OB98/GEN NMR

erre ene a

0 1
  C     -122.360     -83.669     -71.692
  O     -123.210     -83.044     -72.629
  P     -123.746     -81.548     -72.465
  C     -126.091     -82.486     -71.855
  O     -125.344     -81.565     -72.643
  C     -127.517     -82.707     -72.384
  O     -128.218     -81.448     -72.411
  C     -127.471     -83.208     -73.830
  O     -127.278     -84.581     -74.102
  C     -128.687     -82.585     -74.504
  O     -129.795     -83.484     -74.576
  C     -129.021     -81.394     -73.602
  N     -131.248     -77.477     -75.921
  C     -131.820     -78.473     -75.154
  N     -133.170     -78.530     -75.172
  N     -131.129     -79.339     -74.461
  C     -129.791     -79.213     -74.621
  C     -129.109     -78.261     -75.340
  C     -129.884     -77.284     -76.068
  O     -129.417     -76.438     -76.826
  N     -127.757     -78.487     -75.335
  C     -127.621     -79.601     -74.646
  N     -128.830     -80.101     -74.226
  O     -122.962     -80.473     -73.144
  O     -123.587     -81.328     -70.873
  H     -130.520     -83.028     -75.039
  H     -123.355     -80.391     -70.729
  H     -131.833     -76.885     -76.498
  H     -126.680     -80.102     -74.453
  H     -130.067     -81.439     -73.275
  H     -128.454     -82.299     -75.536
  H     -133.725     -77.974     -75.806
  H     -126.608     -82.723     -74.305
  H     -133.615     -79.344     -74.762
  H     -128.089     -83.352     -71.712
  H     -126.114     -82.100     -70.832
  H     -125.569     -83.446     -71.824
  P     -126.401     -85.202     -75.286
  C     -127.705     -86.896     -76.689
  O     -126.892     -86.702     -75.546
  O     -124.951     -85.409     -74.637
  O     -126.304     -84.351     -76.510
  H     -124.278     -85.444     -75.341
  H     -128.220     -87.856     -76.602
  H     -127.078     -86.909     -77.586
  H     -128.450     -86.099     -76.779
  H     -122.139     -84.664     -72.019
  H     -122.845     -83.706     -70.739
  H     -121.451     -83.111     -71.608

 3  4  5  6  7  8  9  10  11  12  23  26  30  31 0
 6-311+G(2d,p)
 ****
 33  35  36  37  38 0
 6-311+G(2d,p)
 ****
 1  2  13  14  15  16  17  18  19  20  21  22  24  25 0
 3-21G
 ****
 27  28  29  32  34  39  40  41  42  43  44  45  46  47  48  49 0
 3-21G
 ****


