%nproc=1
%NoSave
%Mem=1900MB
#P OB98/GEN NMR

erre ene a

0 1
  C      312.930    -203.363     476.201
  O      312.195    -204.204     475.336
  H      313.990    -203.600     476.101
  H      312.627    -203.545     477.237
  H      312.776    -202.314     475.944
  P      310.619    -203.928     475.197
  C      309.077    -204.085     473.110
  O      310.135    -204.670     473.856
  C      308.945    -204.770     471.747
  O      310.165    -204.550     470.992
  C      308.713    -206.280     471.843
  O      307.790    -206.664     470.818
  C      310.084    -206.875     471.543
  O      310.004    -208.200     471.020
  C      310.658    -205.833     470.572
  N      312.122    -205.872     470.562
  C      312.718    -206.878     469.784
  O      312.014    -207.671     469.150
  N      314.084    -206.981     469.773
  C      314.796    -206.224     470.549
  N      316.142    -206.395     470.516
  C      314.206    -205.196     471.440
  C      312.878    -205.074     471.387
  O      310.546    -202.379     474.800
  O      309.803    -204.246     476.407
  H      310.918    -208.535     470.892
  H      309.740    -201.957     475.153
  H      314.837    -204.605     472.086
  H      312.358    -204.357     472.014
  H      310.291    -206.017     469.551
  H      310.675    -206.904     472.463
  H      308.331    -206.601     472.813
  H      308.130    -204.281     471.192
  H      316.512    -207.118     469.911
  H      309.302    -203.023     472.953
  H      316.793    -205.890     471.116
  H      308.140    -204.172     473.676
  P      306.422    -207.336     471.296
  C      304.107    -207.880     470.238
  O      305.451    -207.487     470.021
  O      305.725    -206.185     472.161
  O      306.612    -208.599     472.089
  H      305.762    -206.417     473.114
  H      303.596    -207.935     469.300
  H      303.623    -207.162     470.867
  H      304.088    -208.839     470.711

 6  7  8  9  10  11  12  13  14  15  16  26  30  31  32  33  35 0
 6-311+G(2d,p)
 ****
 37  38 0
 6-311+G(2d,p)
 ****
 1  2  3  4  5  17  18  19  20  21  22  23  24  25 0
 3-21G
 ****
 27  28  29  34  36  39  40  41  42  43  44  45  46 0
 3-21G
 ****


