%nproc=1
%NoSave
%Mem=1900MB
#P OB98/GEN NMR

erre ene a

0 1
  C      -89.020      55.059     -97.607
  O      -88.203      56.205     -97.477
  H      -90.061      55.380     -97.703
  H      -88.926      54.424     -96.723
  H      -88.738      54.497     -98.501
  P      -86.640      55.943     -97.210
  C      -85.367      54.919     -95.177
  O      -86.618      55.255     -95.757
  C      -85.479      54.925     -93.656
  O      -85.520      56.280     -93.154
  C      -86.738      54.256     -93.111
  O      -86.672      52.841     -93.118
  C      -86.739      54.815     -91.699
  O      -85.731      54.149     -90.916
  C      -86.359      56.286     -91.966
  N      -87.525      57.152     -92.164
  C      -87.301      58.532     -92.089
  O      -86.177      58.975     -91.865
  N      -88.371      59.383     -92.235
  C      -89.555      58.903     -92.459
  N      -90.573      59.794     -92.592
  C      -89.833      57.459     -92.557
  C      -88.786      56.651     -92.403
  O      -86.064      57.406     -96.914
  O      -85.910      55.192     -98.272
  H      -86.042      53.235     -90.781
  H      -85.132      57.342     -96.591
  H      -90.839      57.106     -92.732
  H      -88.913      55.576     -92.464
  H      -85.759      56.693     -91.143
  H      -87.687      54.676     -91.179
  H      -87.637      54.608     -93.630
  H      -84.574      54.455     -93.253
  H      -90.361      60.775     -92.460
  H      -84.627      55.658     -95.503
  H      -91.546      59.518     -92.617
  H      -85.051      53.927     -95.512
  P      -87.996      52.044     -93.559
  C      -90.410      51.842     -92.605
  O      -89.057      52.216     -92.371
  O      -87.554      50.513     -93.443
  O      -88.506      52.380     -94.925
  H      -87.992      49.971     -94.128
  H      -90.986      52.017     -91.721
  H      -90.454      50.804     -92.860
  H      -90.807      52.424     -93.410

 6  7  8  9  10  11  12  13  14  15  16  26  30  31  32  33  35 0
 6-311+G(2d,p)
 ****
 37  38 0
 6-311+G(2d,p)
 ****
 1  2  3  4  5  17  18  19  20  21  22  23  24  25 0
 3-21G
 ****
 27  28  29  34  36  39  40  41  42  43  44  45  46 0
 3-21G
 ****


