%nproc=1
%NoSave
%Mem=1900MB
#P OB98/GEN NMR

erre ene a

0 1
  C       -6.979     129.358      38.022
  O       -5.955     129.437      37.055
  P       -5.403     130.851      36.540
  C       -7.259     131.086      34.767
  O       -6.664     131.646      35.933
  C       -8.245     132.083      34.143
  O       -9.167     132.542      35.183
  C       -7.547     133.326      33.549
  O       -7.898     133.611      32.194
  C       -7.887     134.416      34.555
  O       -7.778     135.729      34.039
  C       -9.274     133.973      35.037
  N       -9.674     134.632      36.278
  C       -9.794     136.019      36.248
  O       -9.597     136.713      35.254
  N      -10.095     136.619      37.441
  C      -10.170     136.000      38.654
  O      -10.346     136.616      39.698
  C       -9.995     134.539      38.628
  C       -9.782     133.925      37.461
  O       -4.224     130.783      35.628
  O       -5.131     131.652      37.901
  H       -7.994     136.352      34.758
  H       -5.912     131.775      38.468
  H      -10.185     137.624      37.435
  H      -10.041     134.023      39.576
  H       -9.648     132.849      37.411
  H      -10.038     134.165      34.280
  H       -7.173     134.339      35.386
  H       -6.460     133.187      33.518
  H       -8.820     131.551      33.379
  H       -7.797     130.179      35.047
  H       -6.480     130.800      34.052
  P       -6.870     134.052      31.050
  C       -8.069     136.327      30.658
  O       -6.869     135.652      30.969
  O       -7.035     133.354      29.741
  O       -5.437     133.720      31.689
  H       -4.803     133.511      30.977
  H       -7.822     137.271      30.160
  H       -8.607     136.552      31.585
  H       -8.708     135.733      29.998
  H       -7.199     128.331      38.225
  H       -7.857     129.845      37.652
  H       -6.657     129.839      38.922

 3  4  5  6  7  8  9  10  11  12  13  23  28  29  30  31  32 0
 6-311+G(2d,p)
 ****
 33  34 0
 6-311+G(2d,p)
 ****
 1  2  14  15  16  17  18  19  20  21  22  24  25  26  27 0
 3-21G
 ****
 35  36  37  38  39  40  41  42  43  44  45 0
 3-21G
 ****


