%nproc=1
%NoSave
%Mem=1900MB
#P OB98/GEN NMR

erre ene a

0 1
  C     -288.020    -469.849    -480.657
  O     -288.728    -470.948    -480.125
  H     -286.959    -470.106    -480.712
  H     -288.140    -468.978    -480.006
  H     -288.379    -469.613    -481.664
  P     -290.325    -470.815    -480.043
  C     -290.277    -470.792    -477.447
  O     -290.758    -471.434    -478.622
  C     -289.673    -471.813    -476.484
  O     -288.336    -472.172    -476.945
  C     -289.537    -471.313    -475.038
  O     -289.767    -472.421    -474.158
  C     -288.065    -470.934    -474.947
  O     -287.588    -470.906    -473.602
  C     -287.454    -472.029    -475.820
  N     -282.597    -472.608    -474.625
  C     -283.741    -473.117    -474.027
  N     -283.557    -473.900    -472.937
  N     -284.948    -472.875    -474.453
  C     -284.976    -472.104    -475.570
  C     -283.926    -471.540    -476.254
  C     -282.589    -471.791    -475.755
  O     -281.547    -471.354    -476.231
  N     -284.374    -470.796    -477.322
  C     -285.692    -470.918    -477.283
  N     -286.104    -471.697    -476.235
  O     -290.821    -471.913    -481.101
  O     -290.872    -469.463    -480.346
  H     -288.049    -470.180    -473.133
  H     -290.966    -471.502    -481.971
  H     -281.691    -472.816    -474.249
  H     -286.383    -470.460    -477.978
  H     -287.402    -472.988    -475.301
  H     -287.902    -469.943    -475.389
  H     -282.656    -474.163    -472.582
  H     -290.210    -470.485    -474.779
  H     -284.377    -474.316    -472.509
  H     -290.275    -472.728    -476.524
  H     -291.109    -470.279    -476.954
  H     -289.515    -470.051    -477.728
  P     -290.981    -472.317    -473.116
  C     -289.929    -472.275    -470.737
  O     -290.539    -473.049    -471.761
  O     -292.062    -473.338    -473.728
  O     -291.547    -470.944    -472.960
  H     -292.961    -473.058    -473.471
  H     -289.695    -472.906    -469.905
  H     -290.602    -471.505    -470.423
  H     -289.030    -471.832    -471.112

 6  7  8  9  10  11  12  13  14  15  26  29  33  34 0
 6-311+G(2d,p)
 ****
 36  38  39  40  41 0
 6-311+G(2d,p)
 ****
 1  2  3  4  5  16  17  18  19  20  21  22  23  24  25 0
 3-21G
 ****
 27  28  30  31  32  35  37  42  43  44  45  46  47 0
 3-21G
 ****
 48  49 0
 3-21G
 ****


