%nproc=1
%NoSave
%Mem=1900MB
#P OB98/GEN NMR

erre ene a

0 1
  C      164.180     255.557      35.342
  O      163.682     254.253      35.114
  H      164.244     256.080      34.383
  H      165.175     255.521      35.789
  H      163.499     256.109      35.997
  P      163.736     253.201      36.324
  C      162.186     251.573      35.052
  O      163.464     251.766      35.657
  C      162.266     250.556      33.910
  O      162.726     249.284      34.409
  C      160.925     250.262      33.255
  O      160.403     251.343      32.504
  C      161.176     248.927      32.576
  O      161.755     249.048      31.280
  C      162.193     248.266      33.540
  N      161.598     247.163      34.290
  C      162.306     245.972      34.279
  O      163.364     245.808      33.670
  N      161.739     244.931      34.968
  C      160.532     244.962      35.605
  O      160.057     243.983      36.174
  C      159.815     246.243      35.561
  C      160.369     247.272      34.914
  O      162.849     253.506      37.493
  O      165.288     253.136      36.700
  H      161.028     249.242      30.657
  H      165.425     252.730      37.593
  H      162.245     244.061      34.984
  H      158.853     246.301      36.052
  H      159.856     248.231      34.863
  H      163.041     247.863      32.973
  H      160.251     248.355      32.460
  H      160.194     250.072      34.052
  H      162.997     250.916      33.178
  H      161.861     252.538      34.652
  H      161.467     251.244      35.813
  P      158.840     251.639      32.367
  C      159.528     254.098      31.861
  O      158.661     253.016      31.547
  O      158.005     251.416      33.585
  O      158.402     250.531      31.274
  H      157.496     250.247      31.495
  H      159.291     254.937      31.240
  H      160.542     253.803      31.691
  H      159.403     254.369      32.889

 6  7  8  9  10  11  12  13  14  15  16  26  31  32  33  34  35 0
 6-311+G(2d,p)
 ****
 36  37 0
 6-311+G(2d,p)
 ****
 1  2  3  4  5  17  18  19  20  21  22  23  24  25 0
 3-21G
 ****
 27  28  29  30  38  39  40  41  42  43  44  45 0
 3-21G
 ****


