%nproc=1
%NoSave
%Mem=1900MB
#P OB98/GEN NMR

erre ene a

0 1
  C     -438.236     176.272    -287.896
  O     -437.098     175.458    -287.583
  P     -436.970     174.068    -288.382
  C     -434.406     173.799    -288.697
  O     -435.575     173.395    -287.992
  C     -433.251     172.846    -288.409
  O     -432.645     173.104    -287.120
  C     -433.678     171.379    -288.363
  O     -433.909     170.871    -289.662
  C     -432.481     170.753    -287.638
  O     -431.391     170.555    -288.547
  C     -432.119     171.848    -286.617
  N     -431.280     169.482    -282.156
  C     -430.554     169.542    -283.301
  N     -430.848     170.188    -284.448
  C     -432.020     170.845    -284.339
  C     -432.860     170.878    -283.235
  C     -432.452     170.160    -282.101
  N     -433.197     170.082    -280.946
  N     -433.976     171.656    -283.496
  C     -433.817     172.055    -284.742
  N     -432.649     171.600    -285.292
  O     -436.762     174.536    -289.901
  O     -438.166     173.187    -288.230
  H     -431.690     169.934    -289.239
  H     -437.569     174.347    -290.423
  H     -429.619     168.988    -283.289
  H     -434.526     172.673    -285.294
  H     -431.034     171.969    -286.510
  H     -432.717     169.788    -287.189
  H     -434.584     171.268    -287.745
  H     -432.484     172.976    -289.183
  H     -434.116     174.818    -288.400
  H     -432.865     169.478    -280.207
  H     -434.113     170.512    -280.916
  H     -434.629     173.837    -289.769
  P     -435.386     171.021    -290.271
  C     -434.191     170.820    -292.533
  O     -435.266     170.360    -291.727
  O     -435.452     172.580    -290.590
  O     -436.477     170.486    -289.404
  H     -434.638     172.897    -291.037
  H     -434.204     170.268    -293.481
  H     -433.239     170.635    -292.038
  H     -434.318     171.883    -292.748
  H     -438.210     177.163    -287.305
  H     -439.133     175.728    -287.683
  H     -438.214     176.532    -288.934

 3  4  5  6  7  8  9  10  11  12  22  25  29  30  31  32 0
 6-311+G(2d,p)
 ****
 33  36  37 0
 6-311+G(2d,p)
 ****
 1  2  13  14  15  16  17  18  19  20  21  23  24  26 0
 3-21G
 ****
 27  28  34  35  38  39  40  41  42  43  44  45  46  47  48 0
 3-21G
 ****


