%nproc=1
%NoSave
%Mem=1900MB
#P OB98/GEN NMR

erre ene a

0 1
  C      318.603    -734.368    -234.808
  O      318.743    -735.654    -234.243
  H      319.258    -734.289    -235.684
  H      318.894    -733.599    -234.085
  H      317.568    -734.204    -235.126
  P      317.947    -735.943    -232.885
  C      317.540    -738.330    -233.824
  O      317.894    -737.536    -232.704
  C      317.777    -739.808    -233.499
  O      317.124    -740.144    -232.246
  C      317.200    -740.769    -234.525
  O      318.011    -740.891    -235.681
  C      317.142    -742.056    -233.718
  O      318.398    -742.745    -233.725
  C      316.796    -741.544    -232.301
  N      315.397    -741.794    -231.960
  C      315.090    -743.104    -231.610
  O      315.926    -744.015    -231.577
  N      313.773    -743.357    -231.328
  C      312.752    -742.455    -231.413
  O      311.591    -742.757    -231.208
  C      313.135    -741.091    -231.804
  C      314.421    -740.827    -232.064
  O      316.439    -735.550    -233.253
  O      318.445    -735.194    -231.689
  H      316.207    -734.707    -232.824
  H      318.628    -742.856    -234.671
  H      313.538    -744.301    -231.072
  H      312.351    -740.344    -231.884
  H      314.731    -739.828    -232.364
  H      317.430    -742.044    -231.553
  H      316.389    -742.735    -234.120
  H      316.173    -740.472    -234.798
  H      318.858    -739.966    -233.378
  H      318.162    -738.054    -234.685
  H      316.491    -738.147    -234.075
  P      317.279    -740.886    -237.115
  C      319.655    -740.112    -237.958
  O      318.454    -740.837    -238.204
  O      316.656    -739.413    -237.119
  O      316.289    -741.987    -237.272
  H      317.177    -738.799    -236.567
  H      320.306    -740.204    -238.802
  H      320.139    -740.507    -237.089
  H      319.422    -739.080    -237.798

 6  7  8  9  10  11  12  13  14  15  16  27  31  32  33  34  35 0
 6-311+G(2d,p)
 ****
 36  37 0
 6-311+G(2d,p)
 ****
 1  2  3  4  5  17  18  19  20  21  22  23  24  25 0
 3-21G
 ****
 26  28  29  30  38  39  40  41  42  43  44  45 0
 3-21G
 ****


