%nproc=1
%NoSave
%Mem=1900MB
#P OB98/GEN NMR

erre ene a

0 1
  C      186.327    -423.680    -155.299
  O      187.004    -422.662    -154.565
  P      186.123    -421.763    -153.564
  C      183.892    -420.479    -153.882
  O      185.068    -420.992    -154.497
  C      182.855    -420.116    -154.937
  O      182.514    -421.282    -155.705
  C      181.537    -419.602    -154.372
  O      181.608    -418.228    -154.020
  C      180.609    -419.817    -155.561
  O      180.749    -418.723    -156.488
  C      181.154    -421.119    -156.175
  N      177.442    -424.270    -157.568
  C      177.965    -423.168    -158.223
  N      177.434    -422.883    -159.433
  N      178.911    -422.412    -157.734
  C      179.370    -422.839    -156.536
  C      178.938    -423.920    -155.792
  C      177.850    -424.716    -156.321
  O      177.309    -425.662    -155.754
  N      179.660    -424.044    -154.631
  C      180.550    -423.072    -154.691
  N      180.397    -422.299    -155.814
  O      187.143    -420.612    -153.126
  O      185.562    -422.489    -152.390
  H      180.377    -419.026    -157.343
  H      186.884    -420.251    -152.258
  H      176.726    -424.825    -158.001
  H      181.316    -422.896    -153.946
  H      181.197    -421.050    -157.268
  H      179.550    -419.857    -155.275
  H      176.799    -423.497    -159.918
  H      181.201    -420.217    -153.528
  H      177.829    -422.103    -159.944
  H      183.295    -419.374    -155.613
  H      184.151    -419.578    -153.313
  H      183.499    -421.225    -153.189
  P      180.581    -417.725    -152.893
  C      178.008    -417.546    -153.203
  O      179.289    -417.214    -153.695
  O      181.260    -416.377    -152.355
  O      180.334    -418.705    -151.798
  H      180.978    -416.198    -151.437
  H      177.983    -417.543    -152.110
  H      177.723    -418.537    -153.567
  H      177.289    -416.815    -153.574
  H      187.028    -424.197    -155.921
  H      185.569    -423.235    -155.909
  H      185.877    -424.371    -154.618

 3  4  5  6  7  8  9  10  11  12  23  26  30  31  33  0
 6-311+G(2d,p)
 ****
 35  36  37  38 0
 6-311+G(2d,p)
 ****
 1  2  13  14  15  16  17  18  19  20  21  22  24  25  27  28  29 0
 3-21G
 ****
 32  34  39  40  41  42  43  44  45  46  47  48  49 0
 3-21G
 ****


