%nproc=1
%NoSave
%Mem=1900MB
#P OB98/GEN NMR

erre ene a

0 1
  C      280.858     894.237    -920.692
  O      280.903     893.278    -921.766
  P      280.991     893.860    -923.246
  C      283.597     893.763    -923.102
  O      282.453     894.538    -923.436
  C      284.568     893.748    -924.281
  O      284.039     893.011    -925.412
  C      284.877     895.133    -924.841
  O      285.762     895.843    -923.986
  C      285.461     894.777    -926.200
  O      286.830     894.364    -926.069
  C      284.593     893.572    -926.611
  N      282.863     893.163    -931.428
  C      283.971     892.698    -930.815
  N      284.370     892.848    -929.536
  C      283.458     893.567    -928.843
  C      282.272     894.095    -929.321
  C      281.984     893.880    -930.685
  N      280.847     894.377    -931.297
  N      281.608     894.766    -928.309
  C      282.382     894.663    -927.258
  N      283.511     893.934    -927.523
  O      280.005     895.122    -923.225
  O      280.607     892.887    -924.305
  H      287.306     895.097    -925.620
  H      279.192     894.920    -923.731
  H      284.640     892.126    -931.458
  H      282.178     895.104    -926.290
  H      285.187     892.782    -927.118
  H      285.422     895.622    -926.919
  H      283.941     895.709    -924.956
  H      285.498     893.258    -923.965
  H      283.306     892.740    -922.853
  H      280.740     894.230    -932.288
  H      280.229     894.975    -930.763
  H      284.064     894.181    -922.213
  P      285.567     897.439    -923.880
  C      284.383     897.105    -921.630
  O      284.281     897.615    -922.932
  O      285.017     897.800    -925.334
  O      286.793     898.184    -923.444
  H      284.299     897.183    -925.611
  H      283.445     897.314    -921.090
  H      285.215     897.584    -921.099
  H      284.522     896.014    -921.655
  H      280.800     893.722    -919.756
  H      279.998     894.863    -920.808
  H      281.742     894.839    -920.714

 3  4  5  6  7  8  9  10  11  12  22  25  29  30  31  32 0
 6-311+G(2d,p)
 ****
 33  36  37 0
 6-311+G(2d,p)
 ****
 1  2  13  14  15  16  17  18  19  20  21  23  24  26 0
 3-21G
 ****
 27  28  34  35  38  39  40  41  42  43  44  45  46  47  48 0
 3-21G
 ****


