%nproc=1
%NoSave
%Mem=1900MB
#P OB98/GEN NMR

erre ene a

0 1
  C     -586.481    -892.050    -898.510
  O     -587.577    -892.630    -897.830
  H     -585.748    -891.720    -897.770
  H     -586.812    -891.200    -899.110
  H     -586.001    -892.800    -899.160
  P     -588.755    -893.210    -898.740
  C     -588.324    -895.780    -898.590
  O     -588.203    -894.590    -899.350
  C     -587.055    -896.020    -897.750
  O     -586.907    -894.930    -896.810
  C     -587.099    -897.320    -896.930
  O     -585.743    -897.790    -896.780
  C     -587.618    -896.830    -895.610
  O     -587.432    -897.800    -894.580
  C     -586.839    -895.520    -895.500
  N     -587.300    -894.490    -890.510
  C     -586.612    -895.470    -891.170
  N     -586.542    -895.660    -892.510
  C     -587.221    -894.710    -893.170
  C     -587.950    -893.660    -892.640
  C     -587.969    -893.570    -891.220
  N     -588.660    -892.600    -890.540
  N     -588.532    -892.910    -893.630
  C     -588.157    -893.500    -894.760
  N     -587.373    -894.590    -894.520
  O     -588.780    -892.220    -900.000
  O     -590.093    -893.310    -898.070
  H     -587.859    -897.500    -893.760
  H     -589.445    -891.530    -899.860
  H     -586.094    -896.170    -890.550
  H     -588.414    -893.180    -895.750
  H     -585.795    -895.700    -895.240
  H     -588.705    -896.640    -895.660
  H     -587.698    -898.120    -897.400
  H     -586.182    -895.990    -898.430
  H     -588.491    -896.620    -899.280
  H     -589.194    -895.700    -897.910
  H     -588.633    -892.620    -889.530
  H     -589.185    -891.920    -891.070
  P     -585.081    -898.700    -897.940
  C     -582.908    -897.480    -898.770
  O     -584.308    -897.750    -898.960
  O     -586.381    -899.140    -898.780
  O     -584.339    -899.900    -897.440
  H     -586.207    -900.000    -899.210
  H     -582.562    -896.828    -899.545
  H     -582.360    -898.398    -898.805
  H     -582.761    -897.013    -897.819

 6  7  8  9  10  11  12  13  14  15  25  28  32  33  34  35 0
 6-311+G(2d,p)
 ****
 36  37  40 0
 6-311+G(2d,p)
 ****
 1  2  3  4  5  16  17  18  19  20  21  22  23  24 0
 3-21G
 ****
 26  27  29  30  31  38  39 41  42  43  44  45  46  47  48 0
 3-21G
 ****


