%nproc=1
%NoSave
%Mem=1900MB
#P OB98/GEN NMR

erre ene a

0 1
  C     -184.109     136.349     125.271
  O     -183.011     137.046     125.823
  H     -184.889     136.260     126.032
  H     -183.807     135.345     124.959
  H     -184.511     136.900     124.416
  P     -181.709     137.197     124.901
  C     -180.312     135.413     126.179
  O     -180.933     135.794     124.957
  C     -179.788     133.984     126.063
  O     -180.900     133.061     125.972
  C     -178.949     133.729     124.819
  O     -177.621     134.207     124.944
  C     -179.013     132.215     124.730
  O     -178.025     131.592     125.561
  C     -180.437     131.911     125.234
  N     -181.339     131.565     124.137
  C     -181.057     130.367     123.479
  O     -180.119     129.633     123.787
  N     -181.870     130.059     122.426
  C     -182.884     130.837     121.943
  O     -183.542     130.529     120.956
  C     -183.125     132.099     122.664
  C     -182.350     132.402     123.711
  O     -180.773     138.183     125.745
  O     -181.970     137.715     123.524
  H     -180.767     139.066     125.334
  H     -178.108     130.631     125.403
  H     -181.687     129.197     121.940
  H     -183.917     132.743     122.305
  H     -182.498     133.330     124.251
  H     -180.422     131.072     125.941
  H     -178.841     131.874     123.713
  H     -179.442     134.159     123.934
  H     -179.215     133.747     126.967
  H     -181.044     135.457     126.993
  H     -179.499     136.113     126.400
  P     -176.954     134.908     123.664
  C     -175.696     132.700     122.962
  O     -176.631     133.722     122.633
  O     -175.529     135.326     124.265
  O     -177.768     136.037     123.120
  H     -175.258     134.739     124.995
  H     -175.622     132.009     122.149
  H     -176.025     132.184     123.840
  H     -174.737     133.139     123.145

 6  7  8  9  10  11  12  13  14  15  16  27  31  32  33  34  35 0
 6-311+G(2d,p)
 ****
 36  37 0
 6-311+G(2d,p)
 ****
 1  2  3  4  5  17  18  19  20  21  22  23  24  25 0
 3-21G
 ****
 26  28  29  30  38  39  40  41  42  43  44  45 0
 3-21G
 ****


