%nproc=1
%NoSave
%Mem=1900MB
#P OB98/GEN NMR

erre ene a

0 1
  C     -203.686      29.613      -5.745
  O     -203.035      28.949      -6.814
  P     -202.808      27.367      -6.696
  C     -205.161      27.146      -7.772
  O     -204.241      26.652      -6.810
  C     -206.324      26.172      -7.964
  O     -207.374      26.814      -8.735
  C     -205.934      24.891      -8.708
  O     -206.711      23.794      -8.203
  C     -206.391      25.153     -10.127
  O     -206.610      23.937     -10.840
  C     -207.654      25.976      -9.874
  N     -211.340      26.926     -13.196
  C     -211.396      26.244     -11.997
  N     -212.575      25.665     -11.688
  N     -210.386      26.145     -11.173
  C     -209.268      26.769     -11.618
  C     -209.096      27.488     -12.779
  C     -210.218      27.580     -13.687
  O     -210.227      28.144     -14.776
  N     -207.830      28.003     -12.866
  C     -207.219      27.564     -11.784
  N     -208.039      26.781     -11.014
  O     -202.415      27.178      -5.155
  O     -201.747      26.822      -7.589
  H     -207.381      23.502     -10.429
  H     -201.458      27.008      -5.076
  H     -212.144      26.965     -13.803
  H     -206.187      27.759     -11.525
  H     -208.504      25.336      -9.611
  H     -205.633      25.733     -10.665
  H     -213.370      25.649     -12.310
  H     -204.870      24.639      -8.650
  H     -212.628      25.122     -10.836
  H     -206.748      25.935      -6.982
  H     -204.645      27.277      -8.724
  H     -205.538      28.123      -7.451
  P     -205.942      22.390      -8.070
  C     -205.451      22.209      -5.521
  O     -204.971      22.543      -6.806
  O     -204.944      22.397      -9.320
  O     -206.839      21.199      -8.063
  H     -204.724      21.484      -9.582
  H     -204.869      21.369      -5.132
  H     -206.510      21.933      -5.531
  H     -205.320      23.069      -4.858
  H     -203.764      30.657      -5.968
  H     -203.121      29.481      -4.846
  H     -204.665      29.202      -5.614

 3  4  5  6  7  8  9  10  11  12  23  26  30  31 0
 6-311+G(2d,p)
 ****
 33  35  36  37  38 0
 6-311+G(2d,p)
 ****
 1  2  13  14  15  16  17  18  19  20  21  22  24  25 0
 3-21G
 ****
 27  28  29  32  34  39  40  41  42  43  44  45  46  47  48  49 0
 3-21G
 ****


