%nproc=1
%NoSave
%Mem=1900MB
#P OB98/GEN NMR

erre ene a

0 1
  C      425.732     308.662     -60.485
  O      426.166     307.820     -59.413
  P      426.091     308.299     -57.873
  C      428.429     309.361     -57.823
  O      427.039     309.577     -57.635
  C      429.293     309.900     -56.679
  O      429.278     311.357     -56.662
  C      428.868     309.448     -55.275
  O      430.070     309.384     -54.498
  C      427.996     310.597     -54.809
  O      427.804     310.638     -53.402
  C      428.764     311.778     -55.380
  N      426.464     315.623     -52.879
  C      427.371     314.706     -52.484
  N      427.962     313.739     -53.213
  C      427.572     313.795     -54.494
  C      426.665     314.681     -55.052
  C      426.083     315.628     -54.183
  N      425.123     316.534     -54.579
  N      426.485     314.421     -56.403
  C      427.264     313.385     -56.641
  N      427.945     312.973     -55.526
  O      426.296     307.195     -56.889
  O      424.613     308.898     -57.724
  H      427.149     311.343     -53.210
  H      424.213     308.561     -56.899
  H      427.646     314.749     -51.431
  H      427.359     312.881     -57.599
  H      429.621     312.034     -54.745
  H      426.995     310.499     -55.276
  H      428.344     308.480     -55.273
  H      430.333     309.605     -56.873
  H      428.740     309.841     -58.767
  H      424.700     317.105     -53.863
  H      424.737     316.467     -55.508
  H      428.603     308.281     -57.934
  P      430.983     308.068     -54.444
  C      430.581     307.383     -52.008
  O      430.308     307.081     -53.378
  O      432.443     308.321     -54.247
  O      430.701     307.329     -55.845
  H      431.417     306.703     -56.036
  H      431.602     307.070     -51.753
  H      429.860     306.841     -51.375
  H      430.467     308.450     -51.822
  H      425.868     308.153     -61.416
  H      426.307     309.565     -60.485
  H      424.696     308.899     -60.356

 3  4  5  6  7  8  9  10  11  12  22  25  29  30  31  32 0
 6-311+G(2d,p)
 ****
 33  36  37 0
 6-311+G(2d,p)
 ****
 1  2  13  14  15  16  17  18  19  20  21  23  24  26 0
 3-21G
 ****
 27  28  34  35  38  39  40  41  42  43  44  45  46  47  48 0
 3-21G
 ****


