%nproc=1
%NoSave
%Mem=1900MB
#P OB98/GEN NMR

erre ene a

0 1
  C     -201.745    -187.731    -551.561
  O     -200.537    -188.195    -552.133
  H     -202.307    -187.189    -552.325
  H     -201.534    -187.050    -550.729
  H     -202.340    -188.577    -551.210
  P     -199.539    -188.989    -551.158
  C     -197.395    -187.840    -552.011
  O     -198.151    -189.044    -551.971
  C     -197.629    -187.109    -553.337
  O     -199.033    -186.762    -553.435
  C     -196.819    -185.818    -553.473
  O     -196.377    -185.676    -554.821
  C     -197.829    -184.730    -553.150
  O     -197.491    -183.480    -553.749
  C     -199.128    -185.345    -553.674
  N     -203.409    -182.656    -554.343
  C     -202.512    -183.157    -555.217
  N     -201.400    -183.882    -554.955
  C     -201.289    -184.112    -553.628
  C     -202.118    -183.658    -552.622
  C     -203.229    -182.885    -553.020
  N     -204.133    -182.352    -552.134
  N     -201.642    -184.065    -551.387
  C     -200.553    -184.758    -551.653
  N     -200.286    -184.798    -552.995
  O     -200.036    -190.300    -550.653
  O     -199.237    -187.889    -550.037
  H     -196.533    -183.329    -553.616
  H     -199.071    -187.013    -550.434
  H     -202.704    -182.948    -556.266
  H     -199.918    -185.237    -550.914
  H     -199.271    -185.182    -554.748
  H     -197.882    -184.584    -552.067
  H     -195.965    -185.787    -552.796
  H     -197.416    -187.800    -554.165
  H     -196.327    -188.056    -551.899
  H     -204.905    -181.821    -552.506
  H     -204.022    -182.530    -551.145
  H     -197.714    -187.212    -551.175
  P     -194.810    -185.464    -555.091
  C     -194.946    -183.533    -556.799
  O     -194.622    -184.899    -556.588
  O     -193.923    -186.605    -554.721
  O     -194.478    -184.172    -554.200
  H     -193.587    -184.279    -553.809
  H     -194.780    -183.282    -557.826
  H     -194.328    -182.920    -556.177
  H     -195.974    -183.368    -556.553

 6  7  8  9  10  11  12  13  14  15  25  28  32  33  34  35 0
 6-311+G(2d,p)
 ****
 36  39  40 0
 6-311+G(2d,p)
 ****
 1  2  3  4  5  16  17  18  19  20  21  22  23  24 0
 3-21G
 ****
 26  27  29  30  31  37  38  41  42  43  44  45  46  47 0
 3-21G
 ****
 48 0
 3-21G
 ****


