%nproc=1
%NoSave
%Mem=1900MB
#P OB98/GEN NMR

erre ene a

0 1
  C     -358.835     168.220    -420.988
  O     -359.221     169.228    -421.904
  H     -359.376     168.370    -420.052
  H     -357.761     168.298    -420.789
  H     -359.070     167.226    -421.379
  P     -358.802     169.007    -423.437
  C     -356.847     169.901    -424.895
  O     -357.311     169.593    -423.590
  C     -355.789     171.005    -424.840
  O     -356.381     172.249    -424.393
  C     -354.636     170.715    -423.881
  O     -353.643     169.897    -424.499
  C     -354.110     172.120    -423.647
  O     -353.332     172.551    -424.783
  C     -355.410     172.938    -423.558
  N     -354.698     174.931    -418.944
  C     -353.879     174.956    -420.056
  N     -352.694     175.596    -419.919
  N     -354.183     174.404    -421.206
  C     -355.384     173.776    -421.185
  C     -356.288     173.677    -420.148
  C     -355.938     174.312    -418.892
  O     -356.640     174.333    -417.882
  N     -357.402     172.962    -420.510
  C     -357.166     172.609    -421.762
  N     -355.955     173.076    -422.219
  O     -359.711     170.077    -424.209
  O     -359.015     167.633    -423.969
  H     -353.925     172.530    -425.559
  H     -360.462     169.616    -424.626
  H     -354.418     175.372    -418.082
  H     -357.840     172.030    -422.376
  H     -355.293     173.950    -423.959
  H     -353.456     172.188    -422.773
  H     -352.385     176.025    -419.053
  H     -354.987     170.287    -422.933
  H     -352.077     175.621    -420.716
  H     -355.414     171.171    -425.861
  H     -357.690     170.237    -425.509
  H     -356.413     168.994    -425.346
  P     -352.709     169.003    -423.546
  C     -350.270     169.137    -422.672
  O     -351.312     169.786    -423.380
  O     -352.336     167.764    -424.490
  O     -353.342     168.542    -422.272
  H     -352.768     166.948    -424.161
  H     -349.410     169.772    -422.642
  H     -350.020     168.221    -423.165
  H     -350.594     168.928    -421.674

 6  7  8  9  10  11  12  13  14  15  26  29  33  34 0
 6-311+G(2d,p)
 ****
 36  38  39  40  41 0
 6-311+G(2d,p)
 ****
 1  2  3  4  5  16  17  18  19  20  21  22  23  24  25 0
 3-21G
 ****
 27  28  30  31  32  35  37  42  43  44  45  46  47 0
 3-21G
 ****
 48  49 0
 3-21G
 ****


