%nproc=1
%NoSave
%Mem=1900MB
#P OB98/GEN NMR

erre ene a

0 1
  C       43.465     131.816     548.795
  O       44.549     130.884     548.675
  P       45.246     130.367     550.027
  C       47.819     130.680     549.700
  O       46.703     129.794     549.646
  C       49.066     129.979     549.170
  O       49.456     128.861     550.001
  C       48.911     129.416     547.763
  O       49.115     130.410     546.768
  C       50.049     128.402     547.719
  O       51.286     129.078     547.452
  C       50.039     127.843     549.145
  N       50.339     122.844     549.878
  C       51.340     123.801     549.836
  N       52.603     123.367     550.012
  N       51.119     125.064     549.618
  C       49.798     125.369     549.478
  C       48.724     124.510     549.509
  C       48.991     123.099     549.724
  O       48.146     122.209     549.767
  N       47.543     125.179     549.314
  C       47.902     126.443     549.188
  N       49.269     126.614     549.268
  O       44.424     129.031     550.366
  O       45.209     131.343     551.153
  H       51.160     129.590     546.630
  H       44.434     128.873     551.326
  H       50.571     121.880     550.043
  H       47.220     127.276     549.045
  H       51.041     127.626     549.523
  H       49.911     127.661     546.924
  H       52.850     122.405     550.232
  H       47.945     128.901     547.648
  H       53.345     124.057     550.008
  H       49.898     130.716     549.165
  H       47.989     131.018     550.734
  H       47.587     131.589     549.127
  P       48.007     130.561     545.615
  C       49.335     130.786     543.393
  O       48.688     131.441     544.455
  O       46.934     131.545     546.279
  O       47.383     129.270     545.173
  H       46.037     131.342     545.938
  H       49.591     131.522     542.631
  H       48.680     130.033     542.946
  H       50.263     130.308     543.744
  H       43.103     132.069     547.821
  H       43.808     132.701     549.289
  H       42.675     131.373     549.365

 3  4  5  6  7  8  9  10  11  12  23  26  30  31 0
 6-311+G(2d,p)
 ****
 33  35  36  37  38 0
 6-311+G(2d,p)
 ****
 1  2  13  14  15  16  17  18  19  20  21  22  24  25 0
 3-21G
 ****
 27  28  29  32  34  39  40  41  42  43  44  45  46  47  48  49 0
 3-21G
 ****


