%nproc=1
%NoSave
%Mem=1900MB
#P OB98/GEN NMR

erre ene a

0 1
  C      111.173      -4.814    -193.425
  O      110.956      -5.458    -192.181
  P      112.033      -6.556    -191.717
  C      113.597      -5.178    -190.166
  O      113.402      -5.763    -191.449
  C      114.441      -6.083    -189.266
  O      115.668      -6.420    -189.957
  C      114.811      -5.454    -187.921
  O      114.783      -6.486    -186.934
  C      116.246      -5.006    -188.124
  O      116.949      -4.910    -186.887
  C      116.766      -6.091    -189.082
  N      117.934      -5.646    -189.834
  C      119.188      -5.998    -189.322
  O      119.269      -6.583    -188.241
  N      120.314      -5.633    -190.016
  C      120.204      -4.889    -191.072
  N      121.348      -4.556    -191.728
  C      118.908      -4.394    -191.576
  C      117.827      -4.824    -190.930
  O      112.329      -7.360    -193.068
  O      111.573      -7.452    -190.614
  H      116.506      -4.226    -186.336
  H      112.536      -8.294    -192.879
  H      118.873      -3.745    -192.440
  H      116.833      -4.531    -191.242
  H      117.033      -6.999    -188.527
  H      116.266      -4.024    -188.610
  H      114.137      -4.645    -187.631
  H      113.890      -7.019    -189.109
  H      122.224      -4.896    -191.353
  H      112.624      -5.034    -189.690
  H      121.358      -3.980    -192.557
  H      114.069      -4.199    -190.282
  P      114.529      -6.052    -185.411
  C      111.994      -6.433    -185.550
  O      113.030      -5.484    -185.388
  O      115.386      -4.698    -185.320
  O      114.910      -7.005    -184.330
  H      115.366      -4.360    -184.407
  H      111.035      -5.936    -185.378
  H      112.105      -7.247    -184.831
  H      112.006      -6.825    -186.571
  H      110.385      -4.113    -193.606
  H      111.187      -5.544    -194.207
  H      112.110      -4.298    -193.401

 3  4  5  6  7  8  9  10  11  12  13  21  23  27  28  29  30  32 0
 6-311+G(2d,p)
 ****
 34  35 0
 6-311+G(2d,p)
 ****
 1  2  14  15  16  17  18  19  20  22  24  25  26 0
 3-21G
 ****
 31  33  36  37  38  39  40  41  42  43  44  45  46 0
 3-21G
 ****


