%nproc=1
%NoSave
%Mem=1900MB
#P OB98/GEN NMR

erre ene a

0 1
  C      134.113    -163.000      81.202
  O      134.986    -162.590      82.237
  H      134.008    -164.087      81.241
  H      134.537    -162.723      80.234
  H      133.126    -162.545      81.322
  P      135.024    -161.021      82.572
  C      136.074    -159.928      80.465
  O      136.284    -160.418      81.781
  C      137.402    -159.524      79.833
  O      137.188    -158.998      78.506
  C      138.165    -158.450      80.604
  O      138.924    -159.009      81.667
  C      139.071    -157.910      79.510
  O      140.169    -158.824      79.293
  C      138.139    -157.916      78.291
  N      135.621    -155.076      74.927
  C      136.293    -156.271      74.752
  N      136.301    -156.777      73.499
  N      136.905    -156.912      75.713
  C      136.835    -156.276      76.908
  C      136.207    -155.087      77.204
  C      135.520    -154.400      76.136
  O      134.901    -153.343      76.243
  N      136.349    -154.758      78.526
  C      137.083    -155.734      79.023
  N      137.407    -156.678      78.081
  O      135.492    -161.000      84.105
  O      133.733    -160.299      82.389
  H      139.782    -159.671      79.005
  H      134.713    -160.832      84.670
  H      135.175    -154.620      74.150
  H      137.400    -155.807      80.055
  H      138.675    -158.130      77.359
  H      139.510    -156.944      79.765
  H      135.869    -156.325      72.709
  H      137.497    -157.653      80.955
  H      136.784    -157.654      73.348
  H      138.012    -160.430      79.728
  H      135.411    -159.057      80.509
  H      135.599    -160.712      79.866
  P      138.915    -158.255      83.083
  C      141.486    -157.936      82.973
  O      140.381    -158.430      83.716
  O      138.002    -159.213      83.983
  O      138.386    -156.862      83.059
  H      137.159    -158.766      84.194
  H      142.391    -158.121      83.514
  H      141.371    -156.883      82.820
  H      141.529    -158.432      82.026

 6  7  8  9  10  11  12  13  14  15  26  29  33  34 0
 6-311+G(2d,p)
 ****
 36  38  39  40  41 0
 6-311+G(2d,p)
 ****
 1  2  3  4  5  16  17  18  19  20  21  22  23  24  25 0
 3-21G
 ****
 27  28  30  31  32  35  37  42  43  44  45  46  47 0
 3-21G
 ****
 48  49 0
 3-21G
 ****


