%nproc=1
%NoSave
%Mem=1900MB
#P OB98/GEN NMR

erre ene a

0 1
  C     -342.244     194.596     408.478
  O     -342.553     193.441     407.732
  P     -341.512     192.858     406.657
  C     -341.105     190.551     405.587
  O     -341.688     191.264     406.676
  C     -340.471     189.255     406.089
  O     -339.247     189.524     406.829
  C     -341.339     188.475     407.066
  O     -342.541     187.923     406.572
  C     -340.326     187.512     407.657
  O     -340.108     186.386     406.797
  C     -339.054     188.398     407.720
  N     -338.757     188.830     409.086
  C     -338.074     187.913     409.879
  O     -337.724     186.799     409.490
  N     -337.830     188.313     411.168
  C     -338.228     189.485     411.739
  O     -338.012     189.758     412.913
  C     -338.960     190.405     410.854
  C     -339.188     190.041     409.591
  O     -340.109     193.334     406.813
  O     -342.178     193.255     405.253
  H     -340.899     185.817     406.858
  H     -343.065     192.876     405.107
  H     -337.344     187.655     411.764
  H     -339.281     191.351     411.274
  H     -339.728     190.705     408.917
  H     -338.185     187.840     407.343
  H     -340.650     187.114     408.628
  H     -341.635     189.154     407.871
  H     -340.197     188.651     405.218
  H     -340.323     191.176     405.131
  H     -341.869     190.351     404.827
  P     -343.729     187.412     407.518
  C     -346.317     187.287     407.410
  O     -345.117     187.629     406.747
  O     -343.666     187.825     408.956
  O     -343.550     185.819     407.420
  H     -343.835     185.423     408.267
  H     -347.155     187.466     406.725
  H     -346.460     187.925     408.298
  H     -346.312     186.233     407.697
  H     -343.057     194.824     409.135
  H     -342.082     195.418     407.812
  H     -341.358     194.423     409.053

 3  4  5  6  7  8  9  10  11  12  13  23  28  29  30  31  32 0
 6-311+G(2d,p)
 ****
 33  34 0
 6-311+G(2d,p)
 ****
 1  2  14  15  16  17  18  19  20  21  22  24  25  26  27 0
 3-21G
 ****
 35  36  37  38  39  40  41  42  43  44  45 0
 3-21G
 ****


