%nproc=1
%NoSave
%Mem=1900MB
#P OB98/GEN NMR

erre ene a

0 1
  C      338.710     -19.684     220.681
  O      339.272     -19.542     219.392
  H      339.515     -19.650     221.421
  H      338.195     -20.644     220.771
  H      338.012     -18.867     220.888
  P      338.286     -19.566     218.129
  C      338.842     -22.042     217.643
  O      337.829     -21.092     217.957
  C      338.436     -22.856     216.420
  O      337.202     -23.559     216.671
  C      338.211     -22.015     215.162
  O      339.449     -21.714     214.541
  C      337.348     -22.967     214.349
  O      338.171     -23.998     213.775
  C      336.434     -23.560     215.436
  N      331.782     -22.584     213.673
  C      332.794     -23.355     213.129
  N      332.544     -23.905     211.922
  N      333.952     -23.545     213.704
  C      334.085     -22.873     214.872
  C      333.159     -22.070     215.504
  C      331.863     -21.911     214.881
  O      330.930     -21.252     215.337
  N      333.676     -21.505     216.641
  C      334.899     -22.000     216.720
  N      335.200     -22.822     215.661
  O      338.808     -18.947     216.868
  O      336.962     -18.839     218.653
  H      338.681     -24.389     214.508
  H      336.983     -17.884     218.459
  H      330.918     -22.460     213.168
  H      335.601     -21.792     217.518
  H      336.154     -24.598     215.223
  H      336.821     -22.475     213.533
  H      331.804     -23.565     211.320
  H      337.628     -21.115     215.376
  H      333.289     -24.430     211.484
  H      339.209     -23.616     216.251
  H      338.963     -22.693     218.517
  H      339.793     -21.534     217.449
  P      339.607     -20.427     213.590
  C      338.883     -21.574     211.390
  O      338.539     -20.649     212.417
  O      340.996     -20.157     213.127
  O      338.959     -19.231     214.424
  H      339.600     -18.771     215.021
  H      338.088     -21.626     210.676
  H      339.041     -22.541     211.819
  H      339.779     -21.249     210.903

 6  7  8  9  10  11  12  13  14  15  26  29  33  34 0
 6-311+G(2d,p)
 ****
 36  38  39  40  41 0
 6-311+G(2d,p)
 ****
 1  2  3  4  5  16  17  18  19  20  21  22  23  24  25 0
 3-21G
 ****
 27  28  30  31  32  35  37  42  43  44  45  46  47 0
 3-21G
 ****
 48  49 0
 3-21G
 ****


