%nproc=1
%NoSave
%Mem=1900MB
#P OB98/GEN NMR

erre ene a

0 1
  C      254.971    -757.983     160.095
  O      255.150    -756.821     160.871
  H      255.864    -758.608     160.182
  H      254.840    -757.711     159.041
  H      254.104    -758.547     160.440
  P      253.911    -755.801     160.951
  C      255.076    -753.720     159.934
  O      254.113    -754.749     159.753
  C      254.555    -752.389     159.388
  O      254.483    -752.475     157.928
  C      253.153    -752.003     159.896
  O      253.106    -750.579     160.036
  C      252.257    -752.396     158.733
  O      251.003    -751.704     158.748
  C      253.160    -752.034     157.555
  N      249.265    -752.464     154.397
  C      249.415    -751.700     155.549
  N      248.355    -750.945     155.908
  N      250.495    -751.697     156.266
  C      251.485    -752.483     155.770
  C      251.466    -753.280     154.650
  C      250.245    -753.302     153.869
  O      250.052    -753.964     152.856
  N      252.652    -753.940     154.496
  C      253.395    -753.548     155.522
  N      252.727    -752.655     156.320
  O      254.247    -754.947     162.264
  O      252.563    -756.434     161.027
  H      250.427    -752.105     158.065
  H      253.807    -755.336     163.044
  H      248.404    -752.445     153.882
  H      254.405    -753.867     155.723
  H      253.202    -750.952     157.371
  H      252.053    -753.472     158.759
  H      247.506    -750.866     155.371
  H      252.869    -752.479     160.843
  H      248.461    -750.350     156.724
  H      255.286    -751.608     159.621
  H      255.993    -753.990     159.392
  H      255.305    -753.615     161.001
  P      253.354    -749.953     161.495
  C      251.581    -748.056     161.313
  O      251.993    -749.249     161.961
  O      254.309    -748.708     161.185
  O      253.971    -750.901     162.469
  H      254.865    -748.516     161.962
  H      250.660    -747.718     161.740
  H      251.442    -748.247     160.269
  H      252.331    -747.303     161.441

 6  7  8  9  10  11  12  13  14  15  26  29  33  34 0
 6-311+G(2d,p)
 ****
 36  38  39  40  41 0
 6-311+G(2d,p)
 ****
 1  2  3  4  5  16  17  18  19  20  21  22  23  24  25 0
 3-21G
 ****
 27  28  30  31  32  35  37  42  43  44  45  46  47 0
 3-21G
 ****
 48  49 0
 3-21G
 ****


