%nproc=1
%NoSave
%Mem=1900MB
#P OB98/GEN NMR

erre ene a

0 1
  C     -310.199      99.918     105.883
  O     -308.909     100.026     105.281
  P     -308.582     101.365     104.468
  C     -307.113     103.030     105.875
  O     -307.171     101.922     104.992
  C     -305.713     103.675     105.867
  O     -304.771     102.739     106.445
  C     -305.161     104.009     104.482
  O     -304.102     104.952     104.629
  C     -304.589     102.672     104.052
  O     -303.660     102.817     102.982
  C     -304.008     102.119     105.374
  N     -304.080     100.648     105.485
  C     -303.154      99.878     104.772
  O     -302.275     100.359     104.054
  N     -303.288      98.520     104.874
  C     -304.212      97.865     105.636
  O     -304.343      96.642     105.626
  C     -305.066      98.713     106.469
  C     -304.974     100.039     106.349
  O     -309.648     102.414     105.024
  O     -308.662     101.207     102.985
  H     -303.121     103.615     103.182
  H     -310.353     102.565     104.364
  H     -302.666      97.956     104.312
  H     -305.772      98.225     107.138
  H     -305.621     100.683     106.947
  H     -302.953     102.404     105.491
  H     -305.394     102.021     103.696
  H     -305.901     104.382     103.772
  H     -305.728     104.572     106.503
  H     -307.378     102.710     106.890
  H     -307.864     103.773     105.578
  P     -304.184     106.316     103.783
  C     -305.332     107.992     105.361
  O     -304.100     107.517     104.847
  O     -305.297     106.405     102.793
  O     -302.748     106.380     103.071
  H     -302.787     106.996     102.307
  H     -305.163     108.381     106.372
  H     -306.082     107.201     105.403
  H     -305.695     108.806     104.727
  H     -310.279      98.979     106.390
  H     -310.952      99.980     105.126
  H     -310.333     100.714     106.585

 3  4  5  6  7  8  9  10  11  12  13  23  28  29  30  31  32 0
 6-311+G(2d,p)
 ****
 33  34 0
 6-311+G(2d,p)
 ****
 1  2  14  15  16  17  18  19  20  21  22  24  25  26  27 0
 3-21G
 ****
 35  36  37  38  39  40  41  42  43  44  45 0
 3-21G
 ****


