%nproc=1
%NoSave
%Mem=1900MB
#P OB98/GEN NMR

erre ene a

0 1
  C     -157.373     -48.167     715.671
  O     -156.244     -47.314     715.855
  P     -156.403     -46.130     716.949
  C     -154.403     -46.693     718.538
  O     -154.925     -45.821     717.539
  C     -152.866     -46.644     718.531
  O     -152.330     -47.321     717.374
  C     -152.289     -45.232     718.483
  O     -152.311     -44.600     719.755
  C     -150.861     -45.523     718.041
  O     -150.055     -45.884     719.177
  C     -151.050     -46.724     717.096
  N     -148.265     -44.723     713.337
  C     -147.941     -44.948     714.669
  N     -146.681     -44.598     715.052
  N     -148.766     -45.444     715.548
  C     -149.982     -45.770     715.022
  C     -150.423     -45.601     713.741
  C     -149.497     -45.008     712.774
  O     -149.741     -44.757     711.593
  N     -151.701     -46.046     713.578
  C     -152.039     -46.504     714.759
  N     -151.031     -46.354     715.691
  O     -157.133     -46.869     718.174
  O     -157.184     -44.955     716.465
  H     -149.137     -46.006     718.838
  H     -157.652     -46.231     718.690
  H     -147.584     -44.322     712.716
  H     -152.989     -46.994     714.998
  H     -150.283     -47.491     717.260
  H     -150.375     -44.658     717.580
  H     -145.969     -44.266     714.416
  H     -152.798     -44.612     717.719
  H     -146.411     -44.785     715.999
  H     -152.514     -47.163     719.454
  H     -154.731     -47.716     718.357
  H     -154.808     -46.390     719.517
  P     -152.028     -42.998     719.785
  C     -154.206     -42.592     721.157
  O     -152.802     -42.468     721.079
  O     -152.924     -42.454     718.576
  O     -150.601     -42.629     719.674
  H     -152.524     -41.636     718.196
  H     -154.541     -43.572     720.791
  H     -154.675     -41.801     720.564
  H     -154.538     -42.473     722.193
  H     -157.146     -48.903     714.929
  H     -158.212     -47.585     715.351
  H     -157.607     -48.653     716.595

 3  4  5  6  7  8  9  10  11  12  23  26  30  31  33  0
 6-311+G(2d,p)
 ****
 35  36  37  38 0
 6-311+G(2d,p)
 ****
 1  2  13  14  15  16  17  18  19  20  21  22  24  25  27  28  29 0
 3-21G
 ****
 32  34  39  40  41  42  43  44  45  46  47  48  49 0
 3-21G
 ****


