%nproc=1
%NoSave
%Mem=1900MB
#P OB98/GEN NMR

erre ene a

0 1
  C     -499.274    1155.834     717.340
  O     -499.924    1154.616     717.760
  P     -501.521    1154.416     717.722
  C     -501.594    1152.786     719.722
  O     -501.851    1152.978     718.340
  C     -501.626    1151.293     720.082
  O     -502.904    1150.710     719.709
  C     -500.605    1150.433     719.374
  O     -499.292    1150.623     719.861
  C     -501.163    1149.027     719.617
  O     -500.762    1148.511     720.891
  C     -502.701    1149.286     719.608
  N     -503.363    1148.744     718.445
  C     -503.101    1147.413     718.138
  O     -502.264    1146.771     718.777
  N     -503.775    1146.833     717.074
  C     -504.558    1147.551     716.351
  N     -505.210    1146.918     715.332
  C     -504.760    1148.992     716.551
  C     -504.147    1149.524     717.617
  O     -502.127    1154.656     716.374
  O     -502.098    1155.453     718.788
  H     -503.024    1155.690     718.549
  H     -501.117    1149.135     721.569
  H     -505.401    1149.573     715.896
  H     -504.252    1150.578     717.851
  H     -503.145    1148.874     720.516
  H     -500.839    1148.318     718.857
  H     -500.640    1150.654     718.293
  H     -501.500    1151.215     721.176
  H     -505.047    1145.926     715.226
  H     -502.369    1153.308     720.292
  H     -505.864    1147.385     714.715
  H     -500.626    1153.231     719.980
  P     -498.167    1151.041     718.793
  C     -496.010    1149.910     719.692
  O     -496.758    1151.093     719.566
  O     -498.479    1152.571     718.472
  O     -498.158    1150.202     717.546
  H     -498.358    1152.738     717.513
  H     -494.936    1150.170     719.761
  H     -496.131    1149.248     718.827
  H     -496.300    1149.364     720.592
  H     -498.215    1155.731     717.455
  H     -499.621    1156.649     717.941
  H     -499.504    1156.025     716.313

 3  4  5  6  7  8  9  10  11  12  13  24  27  28  29  30  32 0
 6-311+G(2d,p)
 ****
 34  35 0
 6-311+G(2d,p)
 ****
 1  2  14  15  16  17  18  19  20  21  22  23  25  26 0
 3-21G
 ****
 31  33  36  37  38  39  40  41  42  43  44  45  46 0
 3-21G
 ****


