%nproc=1
%NoSave
%Mem=1900MB
#P OB98/GEN NMR

erre ene a

0 1
  C     -890.750    -399.854    -514.812
  O     -891.770    -400.761    -515.184
  H     -889.850    -400.081    -515.390
  H     -890.520    -399.965    -513.748
  H     -891.050    -398.822    -515.018
  P     -893.250    -400.521    -514.629
  C     -894.380    -399.271    -516.589
  O     -893.790    -399.161    -515.297
  C     -895.790    -398.692    -516.563
  O     -896.660    -399.554    -515.799
  C     -895.890    -397.317    -515.915
  O     -895.400    -396.311    -516.784
  C     -897.380    -397.249    -515.621
  O     -898.120    -396.892    -516.799
  C     -897.680    -398.710    -515.202
  N     -897.730    -398.898    -513.753
  C     -898.980    -399.187    -513.206
  O     -900.000    -399.242    -513.884
  N     -899.000    -399.388    -511.848
  C     -897.940    -399.248    -511.003
  O     -898.030    -399.386    -509.783
  C     -896.660    -398.908    -511.631
  C     -896.610    -398.750    -512.954
  O     -893.420    -400.596    -513.148
  O     -894.120    -401.646    -515.375
  H     -899.060    -397.045    -516.589
  H     -894.270    -402.396    -514.769
  H     -899.900    -399.583    -511.444
  H     -895.800    -398.785    -510.981
  H     -895.670    -398.498    -513.435
  H     -898.640    -399.035    -515.621
  H     -897.630    -396.510    -514.861
  H     -895.340    -397.309    -514.963
  H     -896.160    -398.667    -517.595
  H     -894.420    -400.333    -516.867
  H     -893.750    -398.735    -517.309
  P     -894.910    -394.903    -516.212
  C     -892.430    -395.539    -516.326
  O     -893.500    -395.139    -515.477
  O     -895.920    -394.162    -515.396
  O     -894.500    -394.073    -517.519
  H     -895.180    -393.391    -517.701
  H     -891.542    -395.669    -515.743
  H     -892.263    -394.786    -517.068
  H     -892.681    -396.462    -516.805

 6  7  8  9  10  11  12  13  14  15  16  26  31  32  33  34  35 0
 6-311+G(2d,p)
 ****
 36  37 0
 6-311+G(2d,p)
 ****
 1  2  3  4  5  17  18  19  20  21  22  23  24  25 0
 3-21G
 ****
 27  28  29  30  38  39  40  41  42  43  44  45 0
 3-21G
 ****


