%nproc=1
%NoSave
%Mem=1900MB
#P OB98/GEN NMR

erre ene a

0 1
  C     -206.017       4.433     303.295
  O     -207.317       4.831     302.841
  P     -208.130       3.815     301.894
  C     -209.534       5.820     300.977
  O     -209.543       4.505     301.524
  C     -210.901       6.466     301.155
  O     -211.941       5.747     300.447
  C     -211.368       6.543     302.606
  O     -210.813       7.660     303.287
  C     -212.870       6.739     302.430
  O     -213.146       8.114     302.139
  C     -213.172       5.857     301.217
  N     -216.571       3.257     303.924
  C     -216.409       4.629     303.764
  N     -217.279       5.419     304.430
  N     -215.472       5.165     303.047
  C     -214.683       4.247     302.416
  C     -214.749       2.877     302.488
  C     -215.786       2.295     303.317
  O     -215.966       1.092     303.498
  N     -213.770       2.289     301.731
  C     -213.127       3.306     301.181
  N     -213.631       4.525     301.576
  O     -208.566       2.651     302.910
  O     -207.346       3.286     300.744
  H     -214.111       8.244     302.253
  H     -208.661       1.815     302.425
  H     -217.311       2.901     304.502
  H     -212.293       3.216     300.492
  H     -213.935       6.286     300.557
  H     -213.432       6.486     303.340
  H     -218.066       5.074     304.970
  H     -211.180       5.595     303.133
  H     -217.192       6.419     304.311
  H     -210.855       7.502     300.753
  H     -209.274       5.787     299.903
  H     -208.738       6.408     301.451
  P     -209.813       7.375     304.508
  C     -210.838       9.419     305.744
  O     -209.672       8.765     305.300
  O     -208.394       7.191     303.776
  O     -210.164       6.179     305.342
  H     -207.838       6.569     304.277
  H     -210.550      10.244     306.395
  H     -211.476       8.731     306.311
  H     -211.399       9.827     304.887
  H     -205.603       5.204     303.910
  H     -205.379       4.269     302.452
  H     -206.098       3.529     303.862

 3  4  5  6  7  8  9  10  11  12  23  26  30  31 0
 6-311+G(2d,p)
 ****
 33  35  36  37  38 0
 6-311+G(2d,p)
 ****
 1  2  13  14  15  16  17  18  19  20  21  22  24  25 0
 3-21G
 ****
 27  28  29  32  34  39  40  41  42  43  44  45  46  47  48  49 0
 3-21G
 ****


