%nproc=1
%NoSave
%Mem=1900MB
#P OB98/GEN NMR

erre ene a

0 1
  C     -150.434     -56.133    -172.873
  O     -150.338     -57.077    -171.802
  P     -151.718     -57.635    -171.208
  C     -150.321     -59.789    -170.820
  O     -151.600     -59.228    -171.082
  C     -150.357     -60.601    -169.526
  O     -150.628     -59.766    -168.379
  C     -151.446     -61.667    -169.511
  O     -151.086     -62.774    -170.319
  C     -151.529     -61.970    -168.019
  O     -150.461     -62.846    -167.623
  C     -151.315     -60.580    -167.398
  N     -155.006     -60.365    -163.862
  C     -153.897     -61.129    -163.963
  N     -152.964     -61.127    -164.939
  C     -153.257     -60.211    -165.875
  C     -154.348     -59.358    -165.904
  C     -155.256     -59.461    -164.837
  N     -156.394     -58.693    -164.741
  N     -154.312     -58.559    -167.028
  C     -153.230     -58.939    -167.678
  N     -152.553     -59.926    -167.015
  O     -152.752     -57.423    -172.411
  O     -152.164     -56.932    -169.968
  H     -150.617     -63.092    -166.689
  H     -153.367     -56.699    -172.198
  H     -153.737     -61.837    -163.155
  H     -152.898     -58.532    -168.624
  H     -150.682     -60.618    -166.505
  H     -152.469     -62.449    -167.731
  H     -152.395     -61.243    -169.862
  H     -149.375     -61.072    -169.390
  H     -149.570     -58.999    -170.739
  H     -157.033     -58.884    -163.985
  H     -156.635     -58.078    -165.506
  H     -150.029     -60.413    -171.671
  P     -152.103     -63.216    -171.476
  C     -150.723     -61.992    -173.263
  O     -151.958     -62.051    -172.574
  O     -153.515     -62.892    -170.805
  O     -151.921     -64.607    -171.979
  H     -153.519     -62.018    -170.374
  H     -150.772     -61.184    -173.997
  H     -150.534     -62.934    -173.783
  H     -149.913     -61.783    -172.560
  H     -149.452     -55.839    -173.179
  H     -150.977     -55.272    -172.542
  H     -150.945     -56.581    -173.699

 3  4  5  6  7  8  9  10  11  12  22  25  29  30  31  32 0
 6-311+G(2d,p)
 ****
 33  36  37 0
 6-311+G(2d,p)
 ****
 1  2  13  14  15  16  17  18  19  20  21  23  24  26 0
 3-21G
 ****
 27  28  34  35  38  39  40  41  42  43  44  45  46  47  48 0
 3-21G
 ****


