%nproc=1
%NoSave
%Mem=1900MB
#P OB98/GEN NMR

erre ene a

0 1
  C       90.340     180.658    -195.282
  O       90.301     182.064    -195.366
  H       90.856     180.374    -194.358
  H       90.897     180.246    -196.131
  H       89.326     180.240    -195.262
  P       89.407     182.693    -196.550
  C       88.291     184.650    -195.261
  O       88.127     183.367    -195.841
  C       87.679     184.673    -193.852
  O       88.324     183.669    -193.021
  C       87.842     185.996    -193.125
  O       86.842     186.937    -193.499
  C       87.662     185.551    -191.681
  O       86.261     185.334    -191.407
  C       88.417     184.211    -191.669
  N       91.732     184.066    -187.827
  C       90.359     183.913    -187.829
  N       89.779     183.705    -186.617
  N       89.610     183.971    -188.897
  C       90.321     184.194    -190.034
  C       91.688     184.357    -190.165
  C       92.496     184.278    -188.974
  O       93.718     184.389    -188.924
  N       92.041     184.563    -191.475
  C       90.891     184.532    -192.132
  N       89.817     184.326    -191.298
  O       88.788     181.402    -197.270
  O       90.140     183.556    -197.523
  H       85.842     186.211    -191.364
  H       88.729     181.571    -198.229
  H       92.256     184.026    -186.974
  H       90.793     184.668    -193.202
  H       87.962     183.479    -190.990
  H       88.011     186.287    -190.954
  H       90.287     183.703    -185.748
  H       88.859     186.420    -193.246
  H       88.777     183.559    -186.591
  H       86.628     184.402    -193.936
  H       87.775     185.393    -195.882
  H       89.356     184.895    -195.218
  P       87.301     188.232    -194.327
  C       84.885     188.718    -195.145
  O       86.231     188.409    -195.504
  O       88.617     187.724    -195.106
  O       87.574     189.448    -193.501
  H       89.185     188.480    -195.329
  H       84.291     188.805    -196.031
  H       84.863     189.643    -194.608
  H       84.492     187.937    -194.528

 6  7  8  9  10  11  12  13  14  15  26  29  33  34 0
 6-311+G(2d,p)
 ****
 36  38  39  40  41 0
 6-311+G(2d,p)
 ****
 1  2  3  4  5  16  17  18  19  20  21  22  23  24  25 0
 3-21G
 ****
 27  28  30  31  32  35  37  42  43  44  45  46  47 0
 3-21G
 ****
 48  49 0
 3-21G
 ****


