%nproc=1
%NoSave
%Mem=1900MB
#P OB98/GEN NMR

erre ene a

0 1
  C       58.579     -94.760    -315.431
  O       58.542     -95.057    -316.831
  P       58.625     -96.593    -317.284
  C       60.184     -96.228    -319.314
  O       58.890     -96.644    -318.879
  C       60.295     -96.354    -320.847
  O       59.302     -95.465    -321.453
  C       61.646     -95.918    -321.438
  O       62.674     -96.900    -321.563
  C       61.242     -95.530    -322.855
  O       61.184     -96.698    -323.684
  C       59.842     -94.949    -322.684
  N       60.925     -90.679    -325.323
  C       61.026     -91.992    -325.639
  N       60.719     -93.066    -324.874
  C       60.243     -92.682    -323.686
  C       60.062     -91.388    -323.228
  C       60.435     -90.351    -324.098
  N       60.323     -89.017    -323.778
  N       59.546     -91.386    -321.936
  C       59.448     -92.661    -321.626
  N       59.823     -93.485    -322.647
  O       57.530     -97.480    -316.795
  O       60.044     -97.052    -316.692
  H       60.853     -96.404    -324.559
  H       59.970     -97.977    -316.381
  H       61.422     -92.206    -326.628
  H       59.087     -93.034    -320.666
  H       59.156     -95.244    -323.490
  H       61.969     -94.849    -323.325
  H       62.040     -95.038    -320.903
  H       60.063     -97.375    -321.150
  H       60.946     -96.868    -318.846
  H       60.646     -88.337    -324.449
  H       60.021     -88.750    -322.856
  H       60.353     -95.213    -318.956
  P       64.183     -96.492    -321.912
  C       64.410     -98.258    -323.821
  O       64.848     -97.797    -322.576
  O       64.959     -95.894    -320.789
  O       63.994     -95.516    -323.171
  H       63.671     -95.961    -323.979
  H       65.114     -99.015    -324.193
  H       64.380     -97.440    -324.556
  H       63.422     -98.723    -323.724
  H       58.515     -93.701    -315.289
  H       59.496     -95.121    -315.014
  H       57.754     -95.236    -314.944

 3  4  5  6  7  8  9  10  11  12  22  25  29  30  31  32 0
 6-311+G(2d,p)
 ****
 33  36  37 0
 6-311+G(2d,p)
 ****
 1  2  13  14  15  16  17  18  19  20  21  23  24  26 0
 3-21G
 ****
 27  28  34  35  38  39  40  41  42  43  44  45  46  47  48 0
 3-21G
 ****


