%nproc=1
%NoSave
%Mem=1900MB
#P OB98/GEN NMR

erre ene a

0 1
  C     -342.939     233.066     291.823
  O     -341.541     232.774     291.852
  P     -340.824     232.536     290.439
  C     -339.268     234.617     290.557
  O     -339.365     233.197     290.498
  C     -338.166     235.032     291.530
  O     -338.516     234.735     292.897
  C     -336.847     234.314     291.289
  O     -336.189     234.829     290.147
  C     -336.129     234.569     292.607
  O     -335.576     235.900     292.623
  C     -337.292     234.487     293.618
  N     -336.215     231.901     297.906
  C     -335.993     233.194     297.550
  N     -336.310     233.799     296.390
  C     -336.918     232.945     295.547
  C     -337.205     231.607     295.776
  C     -336.825     231.085     297.021
  N     -337.025     229.766     297.375
  N     -337.834     231.052     294.675
  C     -337.902     232.031     293.795
  N     -337.373     233.194     294.279
  O     -341.638     233.492     289.446
  O     -340.856     231.113     289.984
  H     -336.329     236.525     292.623
  H     -342.192     232.952     288.851
  H     -335.512     233.806     298.289
  H     -338.315     231.941     292.801
  H     -337.208     235.243     294.405
  H     -335.312     233.874     292.802
  H     -337.015     233.235     291.159
  H     -338.021     236.117     291.431
  H     -340.226     235.049     290.876
  H     -336.645     229.454     298.262
  H     -337.400     229.126     296.694
  H     -339.078     234.998     289.551
  P     -334.972     233.984     289.532
  C     -336.024     233.787     287.203
  O     -334.980     234.356     287.971
  O     -335.566     232.503     289.544
  O     -333.664     234.159     290.238
  H     -336.482     232.480     289.203
  H     -335.937     234.152     286.172
  H     -336.993     234.075     287.602
  H     -335.937     232.694     287.200
  H     -343.296     233.203     292.823
  H     -343.464     232.254     291.365
  H     -343.105     233.960     291.260

 3  4  5  6  7  8  9  10  11  12  22  25  29  30  31  32 0
 6-311+G(2d,p)
 ****
 33  36  37 0
 6-311+G(2d,p)
 ****
 1  2  13  14  15  16  17  18  19  20  21  23  24  26 0
 3-21G
 ****
 27  28  34  35  38  39  40  41  42  43  44  45  46  47  48 0
 3-21G
 ****


