%nproc=1
%NoSave
%Mem=1900MB
#P OB98/GEN NMR

erre ene a

0 1
  C      444.301    -190.223     158.870
  O      443.515    -191.337     158.502
  H      445.119    -190.562     159.510
  H      443.683    -189.517     159.435
  H      444.719    -189.728     157.991
  P      442.512    -191.153     157.264
  C      442.746    -191.138     154.675
  O      443.411    -191.189     155.932
  C      443.722    -191.461     153.543
  O      444.749    -190.420     153.504
  C      444.431    -192.817     153.690
  O      444.595    -193.401     152.393
  C      445.803    -192.419     154.211
  O      446.798    -193.406     153.933
  C      446.019    -191.102     153.470
  N      450.165    -188.463     152.432
  C      449.193    -188.983     151.591
  N      449.385    -188.830     150.261
  N      448.127    -189.603     152.018
  C      448.048    -189.667     153.369
  C      448.940    -189.199     154.305
  C      450.129    -188.531     153.821
  O      451.029    -188.065     154.510
  N      448.530    -189.523     155.583
  C      447.404    -190.199     155.411
  N      447.075    -190.317     154.087
  O      442.078    -189.614     157.389
  O      441.329    -192.062     157.258
  H      446.570    -194.213     154.432
  H      441.244    -189.545     157.887
  H      450.977    -188.009     152.047
  H      446.809    -190.637     156.201
  H      446.299    -191.251     152.418
  H      445.768    -192.261     155.295
  H      450.168    -188.338     149.857
  H      443.916    -193.523     154.355
  H      448.665    -189.169     149.636
  H      443.178    -191.411     152.593
  H      442.337    -190.133     154.521
  H      441.915    -191.855     154.682
  P      443.287    -193.921     151.624
  C      441.844    -193.174     149.586
  O      442.949    -192.899     150.437
  O      442.119    -193.645     152.686
  O      443.349    -195.357     151.237
  H      441.437    -194.340     152.613
  H      441.757    -192.400     148.853
  H      440.947    -193.216     150.168
  H      441.996    -194.113     149.097

 6  7  8  9  10  11  12  13  14  15  26  29  33  34 0
 6-311+G(2d,p)
 ****
 36  38  39  40  41 0
 6-311+G(2d,p)
 ****
 1  2  3  4  5  16  17  18  19  20  21  22  23  24  25 0
 3-21G
 ****
 27  28  30  31  32  35  37  42  43  44  45  46  47 0
 3-21G
 ****
 48  49 0
 3-21G
 ****


