%nproc=1
%NoSave
%Mem=1900MB
#P OB98/GEN NMR

erre ene a

0 1
  C     -835.434     567.279     143.671
  O     -834.727     566.053     143.844
  P     -833.146     566.055     143.555
  C     -832.647     564.544     145.602
  O     -832.591     564.693     144.196
  C     -831.917     563.284     146.049
  O     -830.508     563.377     145.752
  C     -832.008     562.993     147.540
  O     -833.211     562.341     147.898
  C     -830.837     562.033     147.708
  O     -831.198     560.716     147.272
  C     -829.790     562.636     146.764
  N     -824.851     563.321     147.926
  C     -825.499     562.298     147.306
  N     -826.809     562.190     147.053
  C     -827.495     563.249     147.529
  C     -826.965     564.342     148.203
  C     -825.582     564.366     148.392
  N     -824.922     565.420     149.008
  N     -827.975     565.220     148.535
  C     -829.077     564.686     148.061
  N     -828.838     563.503     147.430
  O     -832.601     567.181     144.546
  O     -832.768     566.323     142.138
  H     -831.872     560.386     147.900
  H     -831.743     567.537     144.225
  H     -824.878     561.483     146.984
  H     -830.067     565.140     148.143
  H     -829.205     561.852     146.231
  H     -830.497     561.945     148.744
  H     -831.829     563.894     148.137
  H     -832.330     562.431     145.465
  H     -833.690     564.503     145.925
  H     -823.912     565.443     148.941
  H     -825.436     566.275     149.179
  H     -832.179     565.433     146.071
  P     -833.624     562.410     149.461
  C     -836.120     562.652     148.724
  O     -835.156     561.959     149.494
  O     -833.695     563.985     149.743
  O     -832.698     561.699     150.368
  H     -833.529     564.176     150.693
  H     -837.013     562.045     148.620
  H     -835.730     562.882     147.732
  H     -836.388     563.601     149.226
  H     -836.469     567.129     143.897
  H     -835.334     567.608     142.658
  H     -835.029     568.020     144.328

 3  4  5  6  7  8  9  10  11  12  22  25  29  30  31  32 0
 6-311+G(2d,p)
 ****
 33  36  37 0
 6-311+G(2d,p)
 ****
 1  2  13  14  15  16  17  18  19  20  21  23  24  26 0
 3-21G
 ****
 27  28  34  35  38  39  40  41  42  43  44  45  46  47  48 0
 3-21G
 ****


