%nproc=1
%NoSave
%Mem=1900MB
#P OB98/GEN NMR

erre ene a

0 1
  C      -62.214     -54.774      65.273
  O      -61.556     -55.494      66.298
  H      -61.471     -54.440      64.544
  H      -62.711     -53.897      65.697
  H      -62.946     -55.409      64.767
  P      -62.495     -56.267      67.340
  C      -62.511     -53.904      68.479
  O      -62.678     -55.308      68.619
  C      -62.934     -53.195      69.761
  O      -63.014     -51.771      69.557
  C      -64.324     -53.567      70.251
  O      -64.378     -54.863      70.804
  C      -64.569     -52.462      71.270
  O      -63.995     -52.779      72.543
  C      -63.842     -51.255      70.627
  N      -64.778     -50.247      70.166
  C      -64.597     -49.823      68.842
  O      -63.705     -50.316      68.151
  N      -65.405     -48.829      68.355
  C      -66.294     -48.285      69.126
  N      -67.040     -47.282      68.591
  C      -66.515     -48.701      70.526
  C      -65.729     -49.678      70.977
  O      -61.530     -57.420      67.884
  O      -63.782     -56.763      66.774
  H      -63.033     -52.888      72.392
  H      -60.656     -57.102      68.161
  H      -67.279     -48.226      71.123
  H      -65.823     -50.045      71.993
  H      -63.162     -50.787      71.350
  H      -65.636     -52.295      71.434
  H      -65.054     -53.449      69.439
  H      -62.174     -53.396      70.529
  H      -66.817     -46.991      67.647
  H      -63.092     -53.531      67.629
  H      -67.704     -46.735      69.118
  H      -61.454     -53.715      68.267
  P      -65.677     -55.784      70.642
  C      -66.245     -55.266      73.101
  O      -66.077     -56.281      72.119
  O      -65.564     -56.878      69.636
  O      -66.835     -54.723      70.325
  H      -66.974     -54.051      71.014
  H      -66.508     -55.715      74.036
  H      -67.023     -54.598      72.794
  H      -65.331     -54.722      73.211

 6  7  8  9  10  11  12  13  14  15  16  26  30  31  32  33  35 0
 6-311+G(2d,p)
 ****
 37  38 0
 6-311+G(2d,p)
 ****
 1  2  3  4  5  17  18  19  20  21  22  23  24  25 0
 3-21G
 ****
 27  28  29  34  36  39  40  41  42  43  44  45  46 0
 3-21G
 ****


