%nproc=1
%NoSave
%Mem=1900MB
#P OB98/GEN NMR

erre ene a

0 1
  C     1079.904    -895.300     361.579
  O     1079.382    -895.930     362.747
  P     1080.273    -896.160     364.010
  C     1078.252    -896.970     365.482
  O     1079.550    -897.230     364.971
  C     1077.867    -898.140     366.393
  O     1078.976    -898.440     367.337
  C     1076.681    -897.780     367.279
  O     1075.434    -898.250     366.679
  C     1076.990    -898.480     368.616
  O     1076.609    -899.850     368.557
  C     1078.528    -898.290     368.683
  N     1079.036    -897.010     369.208
  C     1079.927    -897.040     370.290
  O     1080.369    -898.030     370.799
  N     1080.298    -895.780     370.726
  C     1079.929    -894.550     370.194
  O     1080.086    -893.480     370.746
  C     1079.212    -894.650     368.913
  C     1078.772    -895.840     368.498
  O     1080.143    -894.790     364.849
  O     1081.713    -896.530     363.746
  H     1075.653    -899.880     368.581
  H     1080.916    -894.220     364.680
  H     1080.857    -895.740     371.576
  H     1079.008    -893.720     368.364
  H     1078.214    -895.900     367.570
  H     1078.971    -899.100     369.298
  H     1076.399    -898.040     369.427
  H     1076.609    -896.700     367.448
  H     1077.661    -899.000     365.832
  H     1077.534    -896.880     364.693
  H     1078.222    -896.030     366.048
  P     1074.218    -897.290     366.548
  C     1073.399    -899.350     365.230
  O     1073.009    -898.190     366.032
  O     1074.424    -896.000     365.797
  O     1073.817    -896.980     368.092
  H     1074.201    -896.180     368.398
  H     1072.547    -900.000     365.111
  H     1074.206    -899.920     365.778
  H     1073.746    -899.000     364.271
  H     1079.138    -895.239     360.834
  H     1080.724    -895.873     361.201
  H     1080.241    -894.315     361.826

 3  4  5  6  7  8  9  10  11  12  13  23  28  29  30  31  32 0
 6-311+G(2d,p)
 ****
 33  34 0
 6-311+G(2d,p)
 ****
 1  2  14  15  16  17  18  19  20  21  22  24  25  26  27 0
 3-21G
 ****
 35  36  37  38  39  40  41  42  43  44  45 0
 3-21G
 ****


