%nproc=1
%NoSave
%Mem=1900MB
#P OB98/GEN NMR

erre ene a

0 1
  C      -95.019     417.391    -258.108
  O      -95.273     416.104    -257.520
  P      -96.730     415.465    -257.774
  C      -95.971     412.995    -257.605
  O      -96.778     414.028    -257.056
  C      -96.049     411.720    -256.747
  O      -95.298     411.886    -255.507
  C      -97.473     411.315    -256.361
  O      -97.525     409.885    -256.313
  C      -97.609     411.859    -254.953
  O      -98.666     411.227    -254.244
  C      -96.202     411.590    -254.420
  N      -94.944     411.459    -249.470
  C      -95.195     410.484    -250.367
  N      -95.542     410.603    -251.667
  C      -95.589     411.899    -252.028
  C      -95.369     413.005    -251.222
  C      -95.038     412.755    -249.874
  N      -94.812     413.746    -248.958
  N      -95.560     414.174    -251.940
  C      -95.888     413.775    -253.153
  N      -95.887     412.410    -253.260
  O      -96.708     415.118    -259.333
  O      -97.855     416.388    -257.434
  H      -98.810     411.699    -253.397
  H      -97.282     415.733    -259.824
  H      -95.101     409.465    -249.986
  H      -96.137     414.423    -253.978
  H      -96.063     410.543    -254.122
  H      -97.817     412.943    -254.988
  H      -98.248     411.701    -257.037
  H      -95.572     410.901    -257.316
  H      -94.922     413.327    -257.659
  H      -94.602     413.482    -248.006
  H      -94.924     414.711    -249.239
  H      -96.277     412.801    -258.636
  P      -98.242     409.154    -257.551
  C      -96.132     407.795    -258.206
  O      -97.469     407.763    -257.752
  O      -97.800     410.027    -258.817
  O      -99.730     409.059    -257.421
  H      -98.463     409.945    -259.529
  H      -95.558     407.042    -257.663
  H      -95.663     408.777    -258.050
  H      -96.113     407.561    -259.275
  H      -94.024     417.703    -257.868
  H      -95.719     418.103    -257.723
  H      -95.125     417.325    -259.171

 3  4  5  6  7  8  9  10  11  12  22  25  29  30  31  32 0
 6-311+G(2d,p)
 ****
 33  36  37 0
 6-311+G(2d,p)
 ****
 1  2  13  14  15  16  17  18  19  20  21  23  24  26 0
 3-21G
 ****
 27  28  34  35  38  39  40  41  42  43  44  45  46  47  48 0
 3-21G
 ****


