%nproc=1
%NoSave
%Mem=1900MB
#P OB98/GEN NMR

erre ene a

0 1
  C     -463.400     360.725      62.969
  O     -464.400     361.247      63.815
  H     -462.422     360.903      63.427
  H     -463.425     361.232      62.000
  H     -463.531     359.648      62.830
  P     -465.928     360.958      63.417
  C     -466.405     360.952      65.971
  O     -466.823     361.385      64.683
  C     -467.539     361.122      66.984
  O     -467.714     362.541      67.255
  C     -468.880     360.564      66.501
  O     -469.553     359.964      67.616
  C     -469.646     361.797      66.057
  O     -471.062     361.618      66.110
  C     -469.100     362.861      67.020
  N     -469.254     364.211      66.471
  C     -470.468     364.855      66.718
  O     -471.352     364.284      67.370
  N     -470.682     366.098      66.190
  C     -469.796     366.622      65.398
  N     -470.076     367.845      64.877
  C     -468.524     365.951      65.052
  C     -468.319     364.758      65.626
  O     -466.020     359.359      63.429
  O     -466.373     361.542      62.119
  H     -471.295     360.841      65.560
  H     -466.665     359.036      62.772
  H     -467.827     366.410      64.371
  H     -467.424     364.190      65.423
  H     -469.621     362.817      67.986
  H     -469.375     362.047      65.025
  H     -468.782     359.830      65.697
  H     -467.239     360.653      67.928
  H     -470.964     368.268      65.126
  H     -465.548     361.557      66.291
  H     -469.483     368.326      64.218
  H     -466.092     359.904      65.918
  P     -469.938     358.412      67.471
  C     -469.751     357.098      69.707
  O     -470.555     357.918      68.863
  O     -468.513     357.682      67.400
  O     -470.772     358.112      66.268
  H     -468.348     357.357      66.496
  H     -470.299     356.852      70.593
  H     -468.860     357.627      69.974
  H     -469.491     356.199      69.188

 6  7  8  9  10  11  12  13  14  15  16  26  30  31  32  33  35 0
 6-311+G(2d,p)
 ****
 37  38 0
 6-311+G(2d,p)
 ****
 1  2  3  4  5  17  18  19  20  21  22  23  24  25 0
 3-21G
 ****
 27  28  29  34  36  39  40  41  42  43  44  45  46 0
 3-21G
 ****


