%nproc=1
%NoSave
%Mem=1900MB
#P OB98/GEN NMR

erre ene a

0 1
  C       86.083      60.217     919.818
  O       84.881      59.746     920.396
  H       86.913      59.612     920.196
  H       86.257      61.264     920.090
  H       86.042      60.123     918.728
  P       83.523      60.549     920.099
  C       81.026      59.990     920.518
  O       82.370      59.829     920.969
  C       80.223      58.700     920.740
  O       80.682      57.696     919.768
  C       80.396      58.086     922.139
  O       79.174      57.391     922.461
  C       81.536      57.100     921.903
  O       81.649      56.192     922.970
  C       81.122      56.549     920.529
  N       82.240      55.858     919.868
  C       82.536      54.575     920.343
  O       81.889      54.105     921.291
  N       83.578      53.885     919.780
  C       84.286      54.445     918.850
  N       85.310      53.707     918.334
  C       84.045      55.835     918.364
  C       83.011      56.468     918.895
  O       83.190      60.757     918.659
  O       83.724      61.945     920.854
  H       82.302      55.480     922.773
  H       83.923      62.649     920.212
  H       84.687      56.245     917.598
  H       82.756      57.473     918.604
  H       80.283      55.858     920.618
  H       82.504      57.632     921.833
  H       80.625      58.841     922.913
  H       79.168      58.887     920.511
  H       85.441      52.774     918.705
  H       81.069      60.237     919.456
  H       85.958      54.044     917.616
  H       80.546      60.813     921.050
  P       78.287      57.758     923.745
  C       75.846      58.423     924.303
  O       76.751      57.953     923.288
  O       78.834      58.886     924.562
  O       78.231      56.399     924.605
  H       78.142      56.629     925.542
  H       74.863      58.514     923.890
  H       76.174      59.377     924.659
  H       75.828      57.727     925.115

 6  7  8  9  10  11  12  13  14  15  16  26  30  31  32  33  35 0
 6-311+G(2d,p)
 ****
 37  38 0
 6-311+G(2d,p)
 ****
 1  2  3  4  5  17  18  19  20  21  22  23  24  25 0
 3-21G
 ****
 27  28  29  34  36  39  40  41  42  43  44  45  46 0
 3-21G
 ****


