%nproc=1
%NoSave
%Mem=1900MB
#P OB98/GEN NMR

erre ene a

0 1
  C     -194.495     726.821    -207.961
  O     -194.266     725.735    -208.833
  H     -195.111     727.565    -208.474
  H     -193.545     727.286    -207.686
  H     -195.024     726.492    -207.059
  P     -193.521     724.449    -208.237
  C     -192.054     723.896    -210.314
  O     -193.155     723.512    -209.485
  C     -192.182     723.250    -211.694
  O     -192.286     721.808    -211.530
  C     -193.409     723.723    -212.488
  O     -193.038     723.833    -213.870
  C     -194.401     722.588    -212.331
  O     -195.359     722.524    -213.397
  C     -193.470     721.369    -212.226
  N     -194.127     720.256    -211.543
  C     -194.720     719.286    -212.354
  O     -194.697     719.398    -213.586
  N     -195.381     718.246    -211.755
  C     -195.515     718.211    -210.461
  N     -196.215     717.175    -209.934
  C     -194.951     719.259    -209.572
  C     -194.276     720.234    -210.177
  O     -194.692     723.641    -207.507
  O     -192.375     724.742    -207.321
  H     -194.862     722.460    -214.246
  H     -194.358     723.152    -206.728
  H     -195.113     719.211    -208.503
  H     -193.826     721.047    -209.605
  H     -193.170     721.035    -213.233
  H     -194.954     722.715    -211.384
  H     -193.805     724.677    -212.139
  H     -191.250     723.446    -212.256
  H     -196.591     716.484    -210.570
  H     -191.132     723.553    -209.843
  H     -196.414     717.080    -208.939
  H     -192.034     724.986    -210.395
  P     -193.105     725.311    -214.508
  C     -194.006     725.176    -216.946
  O     -192.874     725.173    -216.086
  O     -191.768     726.007    -213.971
  O     -194.324     726.077    -214.117
  H     -191.992     726.682    -213.298
  H     -193.683     725.076    -217.961
  H     -194.539     726.096    -216.830
  H     -194.648     724.358    -216.694

 6  7  8  9  10  11  12  13  14  15  16  26  30  31  32  33  35 0
 6-311+G(2d,p)
 ****
 37  38 0
 6-311+G(2d,p)
 ****
 1  2  3  4  5  17  18  19  20  21  22  23  24  25 0
 3-21G
 ****
 27  28  29  34  36  39  40  41  42  43  44  45  46 0
 3-21G
 ****


