%nproc=1
%NoSave
%Mem=1900MB
#P OB98/GEN NMR

erre ene a

0 1
  C       64.803      38.880     109.043
  O       64.837      37.668     108.290
  P       64.277      36.324     108.962
  C       65.064      34.758     110.849
  O       65.457      35.666     109.827
  C       66.089      33.632     110.999
  O       66.140      32.799     109.824
  C       67.508      34.136     111.199
  O       67.688      34.638     112.511
  C       68.317      32.892     110.863
  O       68.388      32.003     111.990
  C       67.474      32.251     109.738
  N       68.045      32.441     108.413
  C       68.695      31.332     107.860
  O       68.795      30.287     108.502
  N       69.229      31.444     106.599
  C       69.128      32.565     105.954
  N       69.672      32.618     104.709
  C       68.460      33.760     106.507
  C       67.954      33.631     107.731
  O       63.564      35.390     108.042
  O       63.288      36.883     110.097
  H       69.067      31.336     111.764
  H       62.569      36.236     110.235
  H       68.397      34.669     105.926
  H       67.450      34.460     108.214
  H       67.375      31.170     109.907
  H       69.344      33.138     110.581
  H       67.726      34.925     110.468
  H       65.790      33.011     111.854
  H       70.133      31.788     104.358
  H       64.084      34.338     110.607
  H       69.601      33.427     104.109
  H       64.946      35.311     111.787
  P       67.435      36.202     112.751
  C       68.280      38.422     111.715
  O       68.328      37.010     111.697
  O       68.173      36.475     114.148
  O       65.996      36.602     112.816
  H       67.689      37.159     114.645
  H       69.152      38.809     111.178
  H       68.297      38.810     112.737
  H       67.374      38.766     111.208
  H       65.210      39.676     108.456
  H       65.383      38.762     109.935
  H       63.791      39.110     109.303

 3  4  5  6  7  8  9  10  11  12  13  23  27  28  29  30  32 0
 6-311+G(2d,p)
 ****
 34  35 0
 6-311+G(2d,p)
 ****
 1  2  14  15  16  17  18  19  20  21  22  24  25  26 0
 3-21G
 ****
 31  33  36  37  38  39  40  41  42  43  44  45  46 0
 3-21G
 ****


