%nproc=1
%NoSave
%Mem=1900MB
#P OB98/GEN NMR

erre ene a

0 1
  C       75.312    -131.737     286.351
  O       74.691    -132.829     285.697
  H       76.393    -131.812     286.210
  H       75.102    -131.756     287.425
  H       74.964    -130.793     285.924
  P       73.113    -133.030     285.891
  C       73.388    -135.230     287.225
  O       72.950    -133.877     287.241
  C       73.130    -135.879     288.580
  O       73.861    -135.189     289.614
  C       71.670    -135.831     289.000
  O       70.906    -136.790     288.294
  C       71.793    -136.062     290.492
  O       71.966    -137.454     290.792
  C       73.073    -135.261     290.825
  N       72.786    -133.928     291.344
  C       72.404    -133.862     292.688
  O       72.330    -134.886     293.367
  N       72.095    -132.633     293.220
  C       72.176    -131.570     292.485
  N       71.858    -130.386     293.072
  C       72.590    -131.596     291.069
  C       72.873    -132.796     290.568
  O       72.353    -133.580     284.722
  O       72.597    -131.573     286.311
  H       71.320    -137.930     290.234
  H       72.356    -131.056     285.520
  H       72.650    -130.682     290.497
  H       73.185    -132.903     289.534
  H       73.680    -135.796     291.566
  H       70.907    -135.717     291.027
  H       71.266    -134.825     288.845
  H       73.495    -136.915     288.542
  H       71.569    -130.418     294.045
  H       74.462    -135.219     287.010
  H       71.968    -129.488     292.628
  H       72.882    -135.791     286.433
  P       69.305    -136.741     288.322
  C       69.134    -139.235     288.961
  O       68.862    -137.891     289.354
  O       68.642    -136.784     286.988
  O       68.997    -135.396     289.141
  H       69.173    -134.593     288.592
  H       68.796    -139.905     289.724
  H       70.187    -139.359     288.819
  H       68.623    -139.449     288.046

 6  7  8  9  10  11  12  13  14  15  16  26  30  31  32  33  35 0
 6-311+G(2d,p)
 ****
 37  38 0
 6-311+G(2d,p)
 ****
 1  2  3  4  5  17  18  19  20  21  22  23  24  25 0
 3-21G
 ****
 27  28  29  34  36  39  40  41  42  43  44  45  46 0
 3-21G
 ****


