%nproc=1
%NoSave
%Mem=1900MB
#P OB98/GEN NMR

erre ene a

0 1
  C     1021.385    -853.774    -557.593
  O     1020.743    -854.970    -558.030
  P     1021.118    -855.549    -559.485
  C     1023.394    -855.483    -560.702
  O     1022.699    -855.838    -559.506
  C     1024.560    -856.453    -560.967
  O     1025.554    -856.299    -559.906
  C     1024.164    -857.943    -560.967
  O     1023.768    -858.524    -562.194
  C     1025.518    -858.608    -560.602
  O     1026.319    -858.735    -561.778
  C     1026.157    -857.591    -559.664
  N     1027.747    -860.673    -555.873
  C     1028.115    -860.577    -557.159
  N     1027.645    -859.725    -558.104
  C     1026.691    -858.917    -557.595
  C     1026.229    -858.904    -556.294
  C     1026.778    -859.839    -555.412
  N     1026.418    -859.944    -554.077
  N     1025.257    -857.939    -556.140
  C     1025.139    -857.385    -557.341
  N     1025.999    -857.936    -558.247
  O     1020.596    -854.790    -560.647
  O     1020.512    -857.022    -559.425
  H     1026.320    -857.852    -562.210
  H     1020.143    -857.247    -560.305
  H     1028.899    -861.260    -557.499
  H     1024.442    -856.603    -557.583
  H     1027.237    -857.481    -559.834
  H     1025.383    -859.604    -560.183
  H     1023.439    -858.159    -560.182
  H     1025.040    -856.193    -561.923
  H     1023.787    -854.468    -560.607
  H     1026.835    -860.676    -553.534
  H     1025.643    -859.380    -553.744
  H     1022.664    -855.472    -561.510
  P     1022.209    -858.502    -562.652
  C     1020.563    -856.551    -563.237
  O     1021.879    -856.967    -562.971
  O     1021.253    -859.171    -561.705
  O     1022.267    -859.177    -564.097
  H     1022.716    -858.626    -564.772
  H     1020.524    -855.460    -563.210
  H     1019.873    -856.954    -562.466
  H     1020.247    -856.912    -564.228
  H     1021.035    -853.518    -556.615
  H     1021.159    -852.979    -558.272
  H     1022.444    -853.928    -557.564

 3  4  5  6  7  8  9  10  11  12  22  25  29  30  31  32 0
 6-311+G(2d,p)
 ****
 33  36  37 0
 6-311+G(2d,p)
 ****
 1  2  13  14  15  16  17  18  19  20  21  23  24  26 0
 3-21G
 ****
 27  28  34  35  38  39  40  41  42  43  44  45  46  47  48 0
 3-21G
 ****


