%nproc=1
%NoSave
%Mem=1900MB
#P OB98/GEN NMR

erre ene a

0 1
  C     -174.375    -443.983    -523.969
  O     -174.631    -443.670    -522.619
  H     -173.548    -444.698    -524.011
  H     -174.087    -443.079    -524.515
  H     -175.258    -444.435    -524.430
  P     -175.808    -442.611    -522.336
  C     -177.077    -443.936    -520.499
  O     -177.071    -443.467    -521.843
  C     -177.772    -445.295    -520.411
  O     -177.021    -446.311    -521.132
  C     -177.964    -445.815    -518.996
  O     -179.111    -445.247    -518.391
  C     -178.112    -447.315    -519.238
  O     -179.450    -447.648    -519.661
  C     -177.100    -447.551    -520.379
  N     -174.440    -451.297    -518.298
  C     -175.768    -451.264    -518.683
  N     -176.509    -452.355    -518.421
  N     -176.321    -450.225    -519.254
  C     -175.471    -449.179    -519.420
  C     -174.135    -449.113    -519.097
  C     -173.527    -450.279    -518.484
  O     -172.344    -450.402    -518.185
  N     -173.598    -447.889    -519.431
  C     -174.619    -447.212    -519.927
  N     -175.778    -447.945    -519.920
  O     -176.236    -442.132    -523.805
  O     -175.435    -441.452    -521.474
  H     -180.072    -447.460    -518.945
  H     -176.551    -441.213    -523.759
  H     -174.067    -452.137    -517.876
  H     -174.571    -446.192    -520.293
  H     -177.450    -448.330    -521.071
  H     -177.906    -447.890    -518.336
  H     -176.239    -453.021    -517.713
  H     -177.060    -445.628    -518.387
  H     -177.488    -452.324    -518.684
  H     -178.747    -445.197    -520.919
  H     -177.602    -443.220    -519.869
  H     -176.037    -444.023    -520.154
  P     -178.911    -444.464    -516.995
  C     -180.090    -442.262    -517.715
  O     -178.874    -442.903    -517.359
  O     -177.393    -444.789    -516.600
  O     -179.873    -444.860    -515.920
  H     -177.243    -444.603    -515.653
  H     -179.901    -441.231    -517.928
  H     -180.784    -442.337    -516.904
  H     -180.502    -442.735    -518.582

 6  7  8  9  10  11  12  13  14  15  26  29  33  34 0
 6-311+G(2d,p)
 ****
 36  38  39  40  41 0
 6-311+G(2d,p)
 ****
 1  2  3  4  5  16  17  18  19  20  21  22  23  24  25 0
 3-21G
 ****
 27  28  30  31  32  35  37  42  43  44  45  46  47 0
 3-21G
 ****
 48  49 0
 3-21G
 ****


