%nproc=1
%NoSave
%Mem=1900MB
#P OB98/GEN NMR

erre ene a

0 1
  C     -209.836     995.777    -493.571
  O     -209.013     996.089    -494.677
  H     -210.362     994.847    -493.772
  H     -210.575     996.575    -493.423
  H     -209.232     995.659    -492.663
  P     -208.016     997.339    -494.509
  C     -205.803     995.951    -494.136
  O     -206.801     996.807    -493.599
  C     -204.497     996.708    -494.354
  O     -204.163     997.420    -493.132
  C     -203.309     995.801    -494.706
  O     -202.468     996.492    -495.623
  C     -202.583     995.643    -493.373
  O     -201.209     995.294    -493.548
  C     -202.837     997.017    -492.731
  N     -202.686     996.991    -491.278
  C     -201.423     997.272    -490.767
  O     -200.475     997.517    -491.532
  N     -201.227     997.239    -489.408
  C     -202.200     996.885    -488.628
  N     -201.939     996.842    -487.293
  C     -203.551     996.529    -489.125
  C     -203.720     996.621    -490.437
  O     -208.845     998.287    -493.532
  O     -207.601     997.978    -495.800
  H     -200.740     995.470    -492.701
  H     -209.254     997.816    -492.787
  H     -204.327     996.228    -488.433
  H     -204.678     996.389    -490.899
  H     -202.123     997.764    -493.140
  H     -203.062     994.865    -492.780
  H     -203.619     994.832    -495.130
  H     -204.657     997.462    -495.136
  H     -200.993     997.062    -487.001
  H     -206.148     995.521    -495.083
  H     -202.605     996.527    -486.595
  H     -205.656     995.123    -493.433
  P     -201.507     995.657    -496.616
  C     -203.145     994.888    -498.466
  O     -202.374     994.515    -497.327
  O     -200.207     995.218    -496.028
  O     -201.257     996.695    -497.816
  H     -200.311     996.634    -498.075
  H     -203.670     994.033    -498.837
  H     -202.496     995.266    -499.228
  H     -203.848     995.645    -498.188

 6  7  8  9  10  11  12  13  14  15  16  26  30  31  32  33  35 0
 6-311+G(2d,p)
 ****
 37  38 0
 6-311+G(2d,p)
 ****
 1  2  3  4  5  17  18  19  20  21  22  23  24  25 0
 3-21G
 ****
 27  28  29  34  36  39  40  41  42  43  44  45  46 0
 3-21G
 ****


