%nproc=1
%NoSave
%Mem=1900MB
#P OB98/GEN NMR

erre ene a

0 1
  C      -50.893    -157.841     338.338
  O      -52.056    -158.378     337.720
  P      -53.327    -158.681     338.659
  C      -53.858    -161.217     338.872
  O      -53.047    -160.130     339.303
  C      -53.141    -162.030     337.800
  O      -51.936    -162.610     338.344
  C      -53.945    -163.204     337.249
  O      -54.865    -162.798     336.243
  C      -52.836    -164.049     336.637
  O      -52.447    -163.511     335.361
  C      -51.700    -163.871     337.654
  N      -50.828    -168.871     338.311
  C      -50.894    -168.106     337.192
  N      -51.149    -166.778     337.102
  C      -51.372    -166.253     338.317
  C      -51.373    -166.915     339.532
  C      -51.078    -168.292     339.508
  N      -50.981    -169.060     340.642
  N      -51.655    -166.048     340.565
  C      -51.808    -164.874     339.986
  N      -51.632    -164.945     338.626
  O      -54.497    -158.959     337.604
  O      -53.674    -157.595     339.620
  H      -53.247    -163.522     334.792
  H      -55.362    -158.797     338.024
  H      -50.720    -168.623     336.250
  H      -52.025    -163.948     340.504
  H      -50.718    -163.802     337.173
  H      -53.143    -165.087     336.463
  H      -54.438    -163.761     338.054
  H      -52.850    -161.351     336.990
  H      -54.793    -160.823     338.448
  H      -50.579    -169.990     340.557
  H      -50.962    -168.584     341.543
  H      -54.102    -161.845     339.730
  P      -56.102    -163.778     335.956
  C      -55.887    -165.158     333.757
  O      -55.501    -164.993     335.112
  O      -56.975    -162.962     334.891
  O      -56.890    -164.141     337.178
  H      -57.908    -163.234     334.935
  H      -55.177    -165.810     333.262
  H      -55.910    -164.194     333.234
  H      -56.883    -165.620     333.713
  H      -50.134    -157.691     337.599
  H      -50.537    -158.523     339.082
  H      -51.133    -156.905     338.798

 3  4  5  6  7  8  9  10  11  12  22  25  29  30  31  32 0
 6-311+G(2d,p)
 ****
 33  36  37 0
 6-311+G(2d,p)
 ****
 1  2  13  14  15  16  17  18  19  20  21  23  24  26 0
 3-21G
 ****
 27  28  34  35  38  39  40  41  42  43  44  45  46  47  48 0
 3-21G
 ****


