%nproc=1
%NoSave
%Mem=1900MB
#P OB98/GEN NMR

erre ene a

0 1
  C     -623.761    1009.827    -669.221
  O     -624.509    1010.172    -670.362
  H     -622.918    1010.517    -669.132
  H     -623.377    1008.810    -669.321
  H     -624.367    1009.898    -668.310
  P     -626.010    1009.638    -670.498
  C     -627.767    1011.510    -670.260
  O     -626.943    1010.577    -669.582
  C     -628.894    1012.038    -669.365
  O     -629.720    1010.933    -668.917
  C     -628.366    1012.705    -668.096
  O     -628.002    1014.071    -668.245
  C     -629.549    1012.558    -667.152
  O     -630.493    1013.632    -667.332
  C     -630.163    1011.225    -667.579
  N     -631.773    1007.672    -664.267
  C     -632.501    1008.660    -664.908
  N     -633.801    1008.743    -664.585
  N     -631.979    1009.492    -665.774
  C     -630.640    1009.355    -665.938
  C     -629.811    1008.423    -665.349
  C     -630.406    1007.467    -664.429
  O     -629.801    1006.584    -663.832
  N     -628.510    1008.582    -665.752
  C     -628.542    1009.646    -666.523
  N     -629.820    1010.134    -666.685
  O     -625.996    1008.263    -669.668
  O     -626.498    1009.422    -671.896
  H     -631.031    1013.438    -668.119
  H     -626.687    1007.665    -670.008
  H     -632.226    1007.039    -663.636
  H     -627.679    1010.099    -667.009
  H     -631.262    1011.279    -667.609
  H     -629.239    1012.593    -666.097
  H     -634.217    1008.205    -663.838
  H     -627.528    1012.143    -667.687
  H     -634.303    1009.608    -664.820
  H     -629.538    1012.715    -669.942
  H     -628.188    1010.998    -671.128
  H     -627.166    1012.346    -670.638
  P     -626.465    1014.503    -668.123
  C     -625.848    1015.046    -670.593
  O     -625.757    1014.137    -669.514
  O     -625.876    1013.413    -667.099
  O     -626.243    1015.894    -667.643
  H     -625.865    1013.777    -666.194
  H     -625.325    1014.650    -671.438
  H     -625.412    1015.981    -670.309
  H     -626.876    1015.195    -670.848

 6  7  8  9  10  11  12  13  14  15  26  29  33  34 0
 6-311+G(2d,p)
 ****
 36  38  39  40  41 0
 6-311+G(2d,p)
 ****
 1  2  3  4  5  16  17  18  19  20  21  22  23  24  25 0
 3-21G
 ****
 27  28  30  31  32  35  37  42  43  44  45  46  47 0
 3-21G
 ****
 48  49 0
 3-21G
 ****


