%nproc=1
%NoSave
%Mem=1900MB
#P OB98/GEN NMR

erre ene a

0 1
  C     -307.554    1286.650     685.184
  O     -307.704    1286.764     686.613
  P     -307.173    1285.649     687.643
  C     -308.973    1286.193     689.415
  O     -307.587    1286.107     689.123
  C     -309.202    1286.455     690.912
  O     -308.638    1285.378     691.705
  C     -308.540    1287.701     691.459
  O     -309.187    1288.888     691.055
  C     -308.597    1287.440     692.967
  O     -309.857    1287.827     693.521
  C     -308.436    1285.892     693.034
  N     -307.158    1285.473     693.574
  C     -307.114    1285.235     694.942
  O     -308.095    1285.459     695.660
  N     -305.936    1284.757     695.494
  C     -304.889    1284.642     694.751
  N     -303.765    1284.145     695.345
  C     -304.859    1285.016     693.330
  C     -306.021    1285.417     692.805
  O     -305.723    1285.326     687.489
  O     -308.074    1284.360     687.361
  H     -307.579    1283.547     687.625
  H     -310.547    1287.293     693.050
  H     -303.947    1284.935     692.741
  H     -306.090    1285.701     691.759
  H     -309.251    1285.468     693.629
  H     -307.820    1287.980     693.512
  H     -307.486    1287.717     691.134
  H     -310.286    1286.486     691.082
  H     -303.826    1283.899     696.319
  H     -309.443    1285.240     689.141
  H     -302.893    1283.995     694.841
  H     -309.428    1286.984     688.810
  P     -308.375    1289.877     690.082
  C     -308.765    1292.346     690.769
  O     -309.191    1291.256     689.992
  O     -308.555    1289.229     688.633
  O     -306.926    1290.035     690.439
  H     -307.710    1289.293     688.136
  H     -309.058    1293.284     690.257
  H     -307.675    1292.364     690.886
  H     -309.227    1292.326     691.755
  H     -307.983    1287.509     684.711
  H     -308.053    1285.768     684.842
  H     -306.514    1286.589     684.938

 3  4  5  6  7  8  9  10  11  12  13  24  27  28  29  30  32 0
 6-311+G(2d,p)
 ****
 34  35 0
 6-311+G(2d,p)
 ****
 1  2  14  15  16  17  18  19  20  21  22  23  25  26 0
 3-21G
 ****
 31  33  36  37  38  39  40  41  42  43  44  45  46 0
 3-21G
 ****


