%nproc=1
%NoSave
%Mem=1900MB
#P OB98/GEN NMR

erre ene a

0 1
  C     1234.152    -325.149    -699.329
  O     1233.661    -323.880    -698.888
  P     1234.222    -323.293    -697.492
  C     1235.750    -321.440    -698.502
  O     1235.663    -322.650    -697.751
  C     1237.175    -321.271    -699.067
  O     1237.531    -322.345    -699.969
  C     1237.349    -319.987    -699.856
  O     1237.618    -318.876    -698.998
  C     1238.602    -320.321    -700.676
  O     1239.775    -320.162    -699.847
  C     1238.393    -321.808    -700.997
  N     1238.310    -320.217    -705.810
  C     1239.082    -319.788    -704.732
  N     1239.953    -318.785    -704.999
  N     1238.989    -320.297    -703.539
  C     1238.064    -321.292    -703.445
  C     1237.251    -321.795    -704.412
  C     1237.340    -321.227    -705.744
  O     1236.703    -321.546    -706.724
  N     1236.455    -322.804    -703.943
  C     1236.796    -322.911    -702.663
  N     1237.770    -322.012    -702.307
  O     1234.553    -324.631    -696.665
  O     1233.241    -322.421    -696.753
  H     1239.661    -320.776    -699.106
  H     1234.474    -324.460    -695.714
  H     1238.412    -319.794    -706.708
  H     1236.361    -323.646    -701.975
  H     1239.327    -322.382    -700.985
  H     1238.718    -319.664    -701.539
  H     1240.103    -318.397    -705.908
  H     1236.510    -319.797    -700.522
  H     1240.576    -318.487    -704.219
  H     1237.870    -321.282    -698.207
  H     1235.494    -320.593    -697.856
  H     1234.995    -321.465    -699.305
  P     1236.354    -318.117    -698.340
  C     1236.981    -318.820    -695.901
  O     1236.034    -318.900    -696.962
  O     1235.149    -318.533    -699.304
  O     1236.490    -316.655    -698.227
  H     1234.482    -317.828    -699.363
  H     1236.514    -319.265    -695.000
  H     1237.203    -317.767    -695.688
  H     1237.876    -319.362    -696.169
  H     1233.693    -325.405    -700.261
  H     1233.917    -325.896    -698.599
  H     1235.213    -325.096    -699.456

 3  4  5  6  7  8  9  10  11  12  23  26  30  31 0
 6-311+G(2d,p)
 ****
 33  35  36  37  38 0
 6-311+G(2d,p)
 ****
 1  2  13  14  15  16  17  18  19  20  21  22  24  25 0
 3-21G
 ****
 27  28  29  32  34  39  40  41  42  43  44  45  46  47  48  49 0
 3-21G
 ****


