%nproc=1
%NoSave
%Mem=1900MB
#P OB98/GEN NMR

erre ene a

0 1
  C      129.282    -195.681      53.530
  O      128.855    -197.019      53.661
  H      129.830    -195.581      52.590
  H      129.951    -195.422      54.355
  H      128.434    -194.994      53.514
  P      127.764    -197.375      54.776
  C      125.693    -198.124      53.431
  O      126.323    -197.069      54.142
  C      125.468    -197.735      51.965
  O      126.746    -197.402      51.366
  C      124.887    -198.900      51.157
  O      124.105    -198.451      50.055
  C      126.132    -199.595      50.629
  O      125.884    -200.378      49.462
  C      127.063    -198.408      50.390
  N      131.630    -198.283      48.132
  C      130.388    -197.986      47.606
  N      130.361    -197.602      46.308
  N      129.273    -198.080      48.283
  C      129.444    -198.543      49.544
  C      130.619    -198.892      50.169
  C      131.850    -198.752      49.420
  O      132.974    -199.023      49.830
  N      130.394    -199.330      51.450
  C      129.088    -199.251      51.599
  N      128.469    -198.755      50.478
  O      127.924    -196.197      55.850
  O      127.907    -198.723      55.414
  H      125.559    -199.774      48.769
  H      127.579    -196.478      56.716
  H      132.459    -198.167      47.577
  H      128.545    -199.522      52.496
  H      126.892    -197.977      49.396
  H      126.498    -200.275      51.402
  H      131.164    -197.709      45.707
  H      124.290    -199.576      51.764
  H      129.460    -197.686      45.831
  H      124.847    -196.835      51.906
  H      124.740    -198.318      53.927
  H      126.286    -199.037      53.501
  P      122.613    -197.939      50.333
  C      122.853    -195.595      49.128
  O      122.571    -196.344      50.289
  O      122.373    -198.286      51.873
  O      121.574    -198.558      49.450
  H      121.667    -198.952      51.965
  H      122.760    -194.551      49.346
  H      122.162    -195.861      48.355
  H      123.850    -195.804      48.802

 6  7  8  9  10  11  12  13  14  15  26  29  33  34 0
 6-311+G(2d,p)
 ****
 36  38  39  40  41 0
 6-311+G(2d,p)
 ****
 1  2  3  4  5  16  17  18  19  20  21  22  23  24  25 0
 3-21G
 ****
 27  28  30  31  32  35  37  42  43  44  45  46  47 0
 3-21G
 ****
 48  49 0
 3-21G
 ****


