%nproc=1
%NoSave
%Mem=1900MB
#P OB98/GEN NMR

erre ene a

0 1
  C     -395.967      33.553     230.683
  O     -396.284      32.230     231.052
  H     -396.842      34.190     230.848
  H     -395.714      33.576     229.616
  H     -395.129      33.941     231.268
  P     -395.063      31.211     231.273
  C     -395.006      30.843     233.847
  O     -395.420      30.344     232.578
  C     -396.022      30.449     234.925
  O     -397.290      31.123     234.634
  C     -396.305      28.934     235.012
  O     -396.505      28.585     236.383
  C     -397.633      28.809     234.292
  O     -398.351      27.641     234.683
  C     -398.315      30.116     234.699
  N     -402.046      33.413     234.033
  C     -400.962      33.456     234.879
  N     -400.874      34.498     235.732
  N     -400.028      32.528     234.895
  C     -400.219      31.553     233.982
  C     -401.254      31.402     233.096
  C     -402.292      32.415     233.082
  O     -403.280      32.437     232.379
  N     -401.111      30.229     232.375
  C     -400.017      29.668     232.847
  N     -399.433      30.430     233.820
  O     -393.886      32.186     231.777
  O     -394.659      30.423     230.072
  H     -399.106      27.518     234.074
  H     -393.332      32.450     231.019
  H     -402.751      34.136     234.060
  H     -399.606      28.727     232.531
  H     -398.698      30.089     235.719
  H     -397.481      28.764     233.205
  H     -401.536      35.263     235.757
  H     -395.526      28.311     234.582
  H     -400.066      34.558     236.333
  H     -395.669      30.835     235.899
  H     -394.935      31.933     233.794
  H     -394.020      30.440     234.079
  P     -396.198      27.076     236.833
  C     -395.516      27.568     239.295
  O     -396.434      26.944     238.412
  O     -394.605      26.981     236.703
  O     -396.883      26.043     235.996
  H     -394.350      26.076     236.404
  H     -395.814      27.386     240.306
  H     -395.504      28.622     239.111
  H     -394.537      27.167     239.134

 6  7  8  9  10  11  12  13  14  15  26  29  33  34 0
 6-311+G(2d,p)
 ****
 36  38  39  40  41 0
 6-311+G(2d,p)
 ****
 1  2  3  4  5  16  17  18  19  20  21  22  23  24  25 0
 3-21G
 ****
 27  28  30  31  32  35  37  42  43  44  45  46  47 0
 3-21G
 ****
 48  49 0
 3-21G
 ****


