%nproc=1
%NoSave
%Mem=1900MB
#P OB98/GEN NMR

erre ene a

0 1
  C      -54.497    -587.000    -585.180
  O      -55.446    -587.647    -584.320
  P      -55.406    -589.250    -584.229
  C      -57.471    -589.475    -585.810
  O      -56.872    -589.804    -584.555
  C      -58.804    -590.212    -585.981
  O      -58.623    -591.636    -586.101
  C      -59.767    -590.031    -584.816
  O      -60.472    -588.802    -584.920
  C      -60.713    -591.195    -585.020
  O      -61.677    -590.882    -586.050
  C      -59.754    -592.298    -585.506
  N      -60.740    -596.591    -582.885
  C      -61.418    -595.959    -583.868
  N      -61.109    -594.805    -584.503
  C      -59.944    -594.316    -584.041
  C      -59.135    -594.853    -583.041
  C      -59.580    -596.046    -582.455
  N      -58.869    -596.691    -581.458
  N      -58.025    -594.070    -582.845
  C      -58.145    -593.084    -583.714
  N      -59.296    -593.187    -584.448
  O      -55.258    -589.520    -582.659
  O      -54.289    -589.859    -585.008
  H      -62.023    -591.731    -586.377
  H      -54.705    -590.322    -582.515
  H      -62.351    -596.428    -584.172
  H      -57.443    -592.265    -583.836
  H      -60.215    -592.921    -586.284
  H      -61.276    -591.447    -584.119
  H      -59.250    -590.122    -583.857
  H      -59.271    -589.857    -586.906
  H      -56.799    -589.724    -586.624
  H      -59.246    -597.562    -581.090
  H      -57.991    -596.299    -581.152
  H      -57.618    -588.383    -585.850
  P      -59.692    -587.458    -584.491
  C      -61.596    -586.575    -582.931
  O      -60.833    -586.390    -584.138
  O      -59.089    -586.934    -585.872
  O      -58.641    -587.668    -583.452
  H      -58.257    -586.441    -585.714
  H      -62.075    -585.622    -582.692
  H      -60.939    -586.846    -582.104
  H      -62.346    -587.336    -583.090
  H      -54.642    -585.941    -585.139
  H      -54.636    -587.340    -586.185
  H      -53.504    -587.237    -584.858

 3  4  5  6  7  8  9  10  11  12  22  25  29  30  31  32 0
 6-311+G(2d,p)
 ****
 33  36  37 0
 6-311+G(2d,p)
 ****
 1  2  13  14  15  16  17  18  19  20  21  23  24  26 0
 3-21G
 ****
 27  28  34  35  38  39  40  41  42  43  44  45  46  47  48 0
 3-21G
 ****


