%nproc=1
%NoSave
%Mem=1900MB
#P OB98/GEN NMR

erre ene a

0 1
  C      191.125      33.286     -56.402
  O      190.693      32.358     -55.428
  H      192.155      33.040     -56.684
  H      191.110      34.299     -55.993
  H      190.497      33.235     -57.295
  P      189.159      32.388     -54.961
  C      187.562      34.169     -53.995
  O      188.914      33.806     -54.252
  C      187.421      34.672     -52.561
  O      187.557      33.572     -51.634
  C      188.491      35.678     -52.154
  O      188.248      36.954     -52.718
  C      188.388      35.608     -50.640
  O      187.311      36.421     -50.157
  C      188.090      34.112     -50.404
  N      189.280      33.376     -49.976
  C      189.385      33.118     -48.612
  O      188.540      33.464     -47.789
  N      190.539      32.495     -48.211
  C      191.625      32.245     -49.001
  O      192.721      31.917     -48.557
  C      191.433      32.480     -50.442
  C      190.291      33.038     -50.854
  O      188.696      31.200     -54.185
  O      188.350      32.537     -56.337
  H      187.983      31.667     -56.588
  H      187.110      36.092     -49.255
  H      190.641      32.344     -47.216
  H      192.245      32.224     -51.113
  H      190.139      33.253     -51.909
  H      187.311      33.989     -49.641
  H      189.307      35.952     -50.159
  H      189.480      35.313     -52.459
  H      186.416      35.098     -52.440
  H      186.927      33.284     -54.136
  H      187.259      34.941     -54.710
  P      189.452      37.807     -53.340
  C      191.598      38.960     -52.518
  O      190.401      38.289     -52.140
  O      189.043      38.887     -54.287
  O      190.356      36.714     -54.084
  H      190.539      37.020     -54.995
  H      192.146      39.232     -51.641
  H      191.353      39.841     -53.073
  H      192.195      38.311     -53.124

 6  7  8  9  10  11  12  13  14  15  16  27  31  32  33  34  35 0
 6-311+G(2d,p)
 ****
 36  37 0
 6-311+G(2d,p)
 ****
 1  2  3  4  5  17  18  19  20  21  22  23  24  25 0
 3-21G
 ****
 26  28  29  30  38  39  40  41  42  43  44  45 0
 3-21G
 ****


