%nproc=1
%NoSave
%Mem=1900MB
#P OB98/GEN NMR

erre ene a

0 1
  C     -259.231     314.893    -145.266
  O     -260.316     315.604    -144.711
  H     -258.321     315.483    -145.130
  H     -259.398     314.751    -146.338
  H     -259.094     313.922    -144.784
  P     -261.658     314.808    -144.359
  C     -263.249     313.247    -145.669
  O     -262.336     314.339    -145.740
  C     -264.572     313.571    -146.366
  O     -264.378     313.583    -147.801
  C     -265.660     312.533    -146.074
  O     -266.400     312.778    -144.893
  C     -266.543     312.643    -147.313
  O     -267.550     313.652    -147.150
  C     -265.555     313.045    -148.415
  N     -266.297     310.682    -152.892
  C     -267.028     311.710    -152.323
  N     -268.106     312.134    -153.020
  N     -266.724     312.258    -151.170
  C     -265.686     311.665    -150.545
  C     -264.895     310.624    -151.003
  C     -265.190     310.072    -152.311
  O     -264.567     309.183    -152.862
  N     -263.955     310.260    -150.070
  C     -264.224     311.019    -149.024
  N     -265.212     311.943    -149.299
  O     -262.657     315.962    -143.860
  O     -261.519     313.737    -143.317
  H     -268.073     313.696    -147.975
  H     -263.269     315.600    -143.191
  H     -266.557     310.321    -153.789
  H     -263.712     310.977    -148.071
  H     -265.969     313.839    -149.050
  H     -267.065     311.704    -147.504
  H     -268.431     311.693    -153.867
  H     -265.234     311.525    -146.049
  H     -268.771     312.752    -152.554
  H     -264.895     314.585    -146.077
  H     -263.423     313.057    -144.605
  H     -262.800     312.347    -146.095
  P     -267.259     311.611    -144.208
  C     -269.330     310.152    -144.886
  O     -268.450     311.212    -145.186
  O     -268.000     312.363    -143.001
  O     -266.469     310.435    -143.730
  H     -267.528     312.219    -142.163
  H     -270.051     310.054    -145.670
  H     -269.832     310.356    -143.963
  H     -268.775     309.242    -144.797

 6  7  8  9  10  11  12  13  14  15  26  29  33  34 0
 6-311+G(2d,p)
 ****
 36  38  39  40  41 0
 6-311+G(2d,p)
 ****
 1  2  3  4  5  16  17  18  19  20  21  22  23  24  25 0
 3-21G
 ****
 27  28  30  31  32  35  37  42  43  44  45  46  47 0
 3-21G
 ****
 48  49 0
 3-21G
 ****


