%nproc=1
%NoSave
%Mem=1900MB
#P OB98/GEN NMR

erre ene a

0 1
  C       83.164     455.229     492.917
  O       83.945     456.369     492.639
  H       83.029     455.146     494.000
  H       83.681     454.332     492.557
  H       82.178     455.294     492.447
  P       83.919     456.983     491.164
  C       84.915     456.352     488.865
  O       85.012     456.208     490.277
  C       85.974     455.524     488.135
  O       85.929     454.153     488.606
  C       85.741     455.476     486.627
  O       86.327     456.557     485.908
  C       86.401     454.150     486.246
  O       87.801     454.316     485.969
  C       86.203     453.285     487.499
  N       84.680     448.844     485.472
  C       85.826     449.570     485.207
  N       86.642     449.060     484.263
  N       86.119     450.694     485.807
  C       85.157     451.128     486.660
  C       83.978     450.503     486.988
  C       83.684     449.227     486.372
  O       82.693     448.536     486.584
  N       83.227     451.265     487.861
  C       83.925     452.380     487.986
  N       85.140     452.306     487.344
  O       84.586     458.430     491.348
  O       82.558     457.109     490.545
  H       87.887     454.826     485.134
  H       84.200     459.053     490.707
  H       84.513     447.976     485.000
  H       83.622     453.245     488.569
  H       87.114     452.728     487.751
  H       85.944     453.732     485.342
  H       86.417     448.244     483.705
  H       84.672     455.405     486.395
  H       87.390     449.652     483.902
  H       86.968     455.912     488.382
  H       85.052     457.411     488.653
  H       83.911     456.078     488.526
  P       85.970     456.801     484.371
  C       85.927     455.062     482.403
  O       86.604     455.622     483.510
  O       86.882     458.071     483.988
  O       84.522     457.042     484.076
  H       86.350     458.888     484.022
  H       86.528     454.289     481.971
  H       85.746     455.823     481.673
  H       84.994     454.650     482.727

 6  7  8  9  10  11  12  13  14  15  26  29  33  34 0
 6-311+G(2d,p)
 ****
 36  38  39  40  41 0
 6-311+G(2d,p)
 ****
 1  2  3  4  5  16  17  18  19  20  21  22  23  24  25 0
 3-21G
 ****
 27  28  30  31  32  35  37  42  43  44  45  46  47 0
 3-21G
 ****
 48  49 0
 3-21G
 ****


