%nproc=1
%NoSave
%Mem=1900MB
#P OB98/GEN NMR

erre ene a

0 1
  C      417.784    -176.800     283.143
  O      417.132    -178.076     283.252
  P      416.485    -178.450     284.671
  C      417.201    -179.770     286.803
  O      417.579    -179.254     285.534
  C      417.912    -181.105     287.064
  O      417.495    -182.106     286.123
  C      419.424    -181.016     286.910
  O      420.012    -180.415     288.049
  C      419.809    -182.480     286.714
  O      420.081    -183.129     287.966
  C      418.547    -183.085     286.046
  N      418.783    -183.501     284.669
  C      419.337    -184.773     284.505
  O      419.609    -185.468     285.489
  N      419.580    -185.220     283.228
  C      419.320    -184.451     282.218
  N      419.598    -184.953     280.978
  C      418.765    -183.087     282.350
  C      418.526    -182.680     283.590
  O      415.415    -179.578     284.295
  O      415.846    -177.295     285.374
  H      419.243    -183.095     288.477
  H      414.647    -179.528     284.897
  H      418.578    -182.483     281.473
  H      418.116    -181.692     283.787
  H      418.205    -183.967     286.605
  H      420.711    -182.581     286.102
  H      419.674    -180.444     286.004
  H      417.662    -181.440     288.077
  H      419.982    -185.887     280.922
  H      416.126    -179.911     286.857
  H      419.438    -184.439     280.119
  H      417.458    -179.028     287.581
  P      420.487    -178.890     287.931
  C      422.582    -177.729     286.994
  O      421.916    -178.960     287.204
  O      420.911    -178.554     289.442
  O      419.512    -177.901     287.388
  H      421.137    -177.606     289.532
  H      423.611    -177.923     286.689
  H      422.594    -177.139     287.915
  H      422.079    -177.159     286.201
  H      418.168    -176.679     282.152
  H      418.589    -176.750     283.846
  H      417.080    -176.021     283.350

 3  4  5  6  7  8  9  10  11  12  13  21  23  27  28  29  30  32 0
 6-311+G(2d,p)
 ****
 34  35 0
 6-311+G(2d,p)
 ****
 1  2  14  15  16  17  18  19  20  22  24  25  26 0
 3-21G
 ****
 31  33  36  37  38  39  40  41  42  43  44  45  46 0
 3-21G
 ****


