%nproc=1
%NoSave
%Mem=1900MB
#P OB98/GEN NMR

erre ene a

0 1
  C      177.629     163.200     141.180
  O      178.766     162.966     142.023
  P      180.171     162.411     141.480
  C      181.232     164.659     140.753
  O      180.691     163.409     140.334
  C      182.555     164.945     140.036
  O      182.362     164.918     138.600
  C      183.157     166.315     140.306
  O      183.724     166.412     141.598
  C      184.168     166.425     139.165
  O      185.404     165.780     139.500
  C      183.465     165.661     138.028
  N      183.008     166.530     136.955
  C      183.773     166.538     135.784
  O      184.822     165.895     135.722
  N      183.335     167.287     134.721
  C      182.291     168.044     134.851
  N      181.894     168.750     133.757
  C      181.537     168.168     136.114
  C      181.944     167.390     137.112
  O      180.133     160.979     141.056
  O      181.205     162.630     142.682
  H      181.928     161.978     142.612
  H      185.890     165.648     138.661
  H      180.697     168.843     136.190
  H      181.437     167.407     138.071
  H      184.137     164.901     137.612
  H      184.403     167.467     138.925
  H      182.381     167.082     140.179
  H      183.268     164.154     140.306
  H      182.427     168.634     132.904
  H      181.418     164.610     141.831
  H      181.082     169.350     133.745
  H      180.502     165.450     140.559
  P      183.542     167.805     142.370
  C      181.286     167.438     143.600
  O      181.970     168.069     142.536
  O      184.001     168.897     141.290
  O      184.335     167.924     143.631
  H      184.500     169.608     141.735
  H      180.425     168.051     143.874
  H      181.927     167.313     144.477
  H      180.931     166.459     143.268
  H      176.816     163.567     141.771
  H      177.341     162.284     140.708
  H      177.882     163.923     140.433

 3  4  5  6  7  8  9  10  11  12  13  24  27  28  29  30  32 0
 6-311+G(2d,p)
 ****
 34  35 0
 6-311+G(2d,p)
 ****
 1  2  14  15  16  17  18  19  20  21  22  23  25  26 0
 3-21G
 ****
 31  33  36  37  38  39  40  41  42  43  44  45  46 0
 3-21G
 ****


