%nproc=1
%NoSave
%Mem=1900MB
#P OB98/GEN NMR

erre ene a

0 1
  C       53.508    -411.655      34.177
  O       54.427    -412.724      34.286
  P       53.962    -414.219      33.943
  C       54.668    -413.995      31.448
  O       53.637    -414.260      32.372
  C       54.143    -414.044      30.007
  O       55.149    -413.456      29.147
  C       53.902    -415.448      29.461
  O       53.048    -415.348      28.316
  C       55.291    -415.855      29.022
  O       55.268    -416.923      28.080
  C       55.882    -414.522      28.500
  N       57.320    -414.413      28.801
  C       58.192    -414.432      27.718
  O       57.810    -414.461      26.549
  N       59.526    -414.508      28.027
  C       60.040    -414.607      29.286
  O       61.182    -414.977      29.529
  C       59.093    -414.339      30.379
  C       57.791    -414.282      30.093
  O       52.523    -414.311      34.635
  O       54.880    -415.290      34.426
  H       54.809    -416.586      27.276
  H       52.597    -414.727      35.511
  H       60.149    -414.670      27.245
  H       59.486    -414.259      31.385
  H       57.064    -414.136      30.889
  H       55.757    -414.424      27.414
  H       55.856    -416.199      29.897
  H       53.482    -416.145      30.186
  H       53.233    -413.437      29.928
  H       55.474    -414.719      31.587
  H       55.101    -413.005      31.636
  P       51.888    -416.445      28.151
  C       49.999    -414.980      29.088
  O       50.802    -416.128      29.285
  O       52.340    -417.866      28.071
  O       51.145    -415.982      26.807
  H       50.626    -416.723      26.448
  H       49.033    -415.141      29.571
  H       49.839    -414.778      28.024
  H       50.487    -414.116      29.550
  H       53.993    -410.739      34.444
  H       52.682    -411.826      34.835
  H       53.154    -411.591      33.169

 3  4  5  6  7  8  9  10  11  12  13  23  28  29  30  31  32 0
 6-311+G(2d,p)
 ****
 33  34 0
 6-311+G(2d,p)
 ****
 1  2  14  15  16  17  18  19  20  21  22  24  25  26  27 0
 3-21G
 ****
 35  36  37  38  39  40  41  42  43  44  45 0
 3-21G
 ****


