%nproc=1
%NoSave
%Mem=1900MB
#P OB98/GEN NMR

erre ene a

0 1
  C      -67.408     217.704     516.608
  O      -68.223     218.745     517.107
  H      -66.379     217.881     516.930
  H      -67.442     217.696     515.515
  H      -67.741     216.738     517.001
  P      -69.811     218.578     516.907
  C      -71.534     219.689     515.264
  O      -70.213     219.649     515.780
  C      -71.694     220.868     514.305
  O      -71.461     222.096     515.034
  C      -70.731     220.840     513.116
  O      -71.415     221.332     511.964
  C      -69.631     221.804     513.525
  O      -68.940     222.329     512.391
  C      -70.416     222.828     514.355
  N      -69.565     223.546     515.302
  C      -69.159     224.831     514.935
  O      -69.505     225.305     513.846
  N      -68.341     225.539     515.778
  C      -67.907     224.985     516.868
  N      -67.085     225.726     517.651
  C      -68.264     223.609     517.271
  C      -69.096     222.960     516.456
  O      -70.377     219.217     518.261
  O      -70.252     217.177     516.649
  H      -69.613     222.665     511.758
  H      -69.911     220.025     518.536
  H      -67.862     223.184     518.177
  H      -69.415     221.946     516.681
  H      -70.900     223.565     513.699
  H      -68.896     221.289     514.158
  H      -70.334     219.844     512.908
  H      -72.740     220.900     513.966
  H      -66.845     226.658     517.331
  H      -72.258     219.779     516.080
  H      -66.644     225.377     518.494
  H      -71.721     218.745     514.741
  P      -71.734     220.334     510.754
  C      -70.543     219.458     508.638
  O      -70.398     220.118     509.889
  O      -72.959     220.648     509.955
  O      -71.895     218.914     511.492
  H      -72.620     218.430     511.054
  H      -69.587     219.377     508.164
  H      -71.205     220.020     508.013
  H      -70.947     218.480     508.796

 6  7  8  9  10  11  12  13  14  15  16  26  30  31  32  33  35 0
 6-311+G(2d,p)
 ****
 37  38 0
 6-311+G(2d,p)
 ****
 1  2  3  4  5  17  18  19  20  21  22  23  24  25 0
 3-21G
 ****
 27  28  29  34  36  39  40  41  42  43  44  45  46 0
 3-21G
 ****


