%nproc=1
%NoSave
%Mem=1900MB
#P OB98/GEN NMR

erre ene a

0 1
  C      -46.716      90.709      32.401
  O      -47.635      91.171      31.405
  P      -47.303      90.751      29.886
  C      -48.510      88.453      29.897
  O      -47.275      89.145      29.809
  C      -48.586      87.339      28.851
  O      -47.527      86.373      29.003
  C      -49.885      86.549      28.897
  O      -50.921      87.270      28.250
  C      -49.494      85.268      28.172
  O      -49.604      85.422      26.742
  C      -48.028      85.075      28.583
  N      -48.591      80.233      29.991
  C      -49.078      80.899      28.874
  N      -49.796      80.156      28.008
  N      -48.874      82.165      28.641
  C      -48.141      82.777      29.603
  C      -47.588      82.222      30.735
  C      -47.817      80.817      30.981
  O      -47.394      80.184      31.940
  N      -46.855      83.147      31.446
  C      -47.080      84.284      30.804
  N      -47.798      84.108      29.644
  O      -45.759      91.175      29.716
  O      -48.168      91.432      28.881
  H      -50.547      85.539      26.507
  H      -45.693      91.943      29.118
  H      -48.784      79.258      30.124
  H      -46.721      85.256      31.115
  H      -47.407      84.753      27.739
  H      -50.157      84.434      28.438
  H      -49.985      79.173      28.116
  H      -50.149      86.327      29.939
  H      -50.147      80.620      27.167
  H      -48.471      87.815      27.870
  H      -49.343      89.154      29.751
  H      -48.614      88.049      30.914
  P      -52.435      86.846      28.546
  C      -53.232      89.031      29.719
  O      -52.912      87.649      29.839
  O      -52.294      85.327      29.052
  O      -53.346      86.934      27.362
  H      -52.984      84.776      28.635
  H      -53.991      89.286      30.461
  H      -53.616      89.262      28.719
  H      -52.337      89.613      29.912
  H      -47.036      91.046      33.365
  H      -45.740      91.096      32.193
  H      -46.685      89.640      32.389

 3  4  5  6  7  8  9  10  11  12  23  26  30  31 0
 6-311+G(2d,p)
 ****
 33  35  36  37  38 0
 6-311+G(2d,p)
 ****
 1  2  13  14  15  16  17  18  19  20  21  22  24  25 0
 3-21G
 ****
 27  28  29  32  34  39  40  41  42  43  44  45  46  47  48  49 0
 3-21G
 ****


