%nproc=1
%NoSave
%Mem=1900MB
#P OB98/GEN NMR

erre ene a

0 1
  C     -338.041     623.728      63.034
  O     -338.883     623.759      64.196
  P     -338.366     624.664      65.422
  C     -337.021     623.387      67.254
  O     -336.996     624.020      65.969
  C     -335.781     622.517      67.483
  O     -334.616     623.363      67.632
  C     -335.849     621.624      68.728
  O     -335.212     620.368      68.436
  C     -334.973     622.358      69.730
  O     -334.476     621.486      70.750
  C     -333.910     622.921      68.792
  N     -329.793     624.195      71.460
  C     -330.163     622.971      70.934
  N     -329.328     621.938      71.170
  N     -331.251     622.781      70.236
  C     -331.978     623.914      70.049
  C     -331.714     625.180      70.516
  C     -330.528     625.372      71.323
  O     -330.173     626.419      71.861
  N     -332.695     626.072      70.118
  C     -333.539     625.337      69.433
  N     -333.158     624.026      69.365
  O     -339.431     624.356      66.577
  O     -338.302     626.123      65.111
  H     -334.019     620.754      70.303
  H     -339.837     625.189      66.884
  H     -328.958     624.286      72.004
  H     -334.453     625.696      68.984
  H     -333.201     622.147      68.490
  H     -335.557     623.148      70.215
  H     -328.442     622.028      71.641
  H     -336.863     621.445      69.107
  H     -329.554     621.043      70.750
  H     -335.626     621.909      66.584
  H     -337.921     622.768      67.332
  H     -337.086     624.167      68.021
  P     -336.184     619.132      68.108
  C     -336.319     618.327      70.581
  O     -336.997     618.856      69.457
  O     -335.171     617.889      68.008
  O     -336.991     619.307      66.866
  H     -335.542     617.203      67.418
  H     -335.228     618.352      70.441
  H     -336.626     617.292      70.733
  H     -336.577     618.916      71.459
  H     -338.483     623.099      62.290
  H     -337.079     623.343      63.301
  H     -337.933     624.719      62.645

 3  4  5  6  7  8  9  10  11  12  23  26  30  31  33  0
 6-311+G(2d,p)
 ****
 35  36  37  38 0
 6-311+G(2d,p)
 ****
 1  2  13  14  15  16  17  18  19  20  21  22  24  25  27  28  29 0
 3-21G
 ****
 32  34  39  40  41  42  43  44  45  46  47  48  49 0
 3-21G
 ****


