%nproc=1
%NoSave
%Mem=1900MB
#P OB98/GEN NMR

erre ene a

0 1
  C     -890.460     164.320      88.544
  O     -889.700     165.356      89.128
  H     -890.080     163.357      88.893
  H     -890.380     164.359      87.455
  H     -891.510     164.407      88.840
  P     -890.120     166.863      88.760
  C     -891.380     167.530      90.931
  O     -891.470     167.156      89.558
  C     -891.720     169.011      91.093
  O     -892.990     169.302      90.456
  C     -891.880     169.458      92.541
  O     -890.620     169.651      93.183
  C     -892.670     170.735      92.367
  O     -891.820     171.847      92.053
  C     -893.580     170.407      91.168
  N     -898.030     172.336      92.747
  C     -896.890     172.926      92.322
  N     -895.750     172.333      91.909
  C     -895.880     170.999      91.925
  C     -896.980     170.255      92.320
  C     -898.100     170.985      92.742
  N     -899.250     170.382      93.203
  N     -896.700     168.909      92.245
  C     -895.470     168.833      91.788
  N     -894.920     170.072      91.585
  O     -890.590     166.732      87.235
  O     -889.040     167.881      88.924
  H     -891.170     171.900      92.775
  H     -889.880     167.040      86.644
  H     -896.900     174.012      92.338
  H     -894.930     167.912      91.610
  H     -893.660     171.246      90.462
  H     -893.230     170.981      93.273
  H     -892.480     168.728      93.090
  H     -890.940     169.594      90.580
  H     -890.360     167.345      91.293
  H     -892.080     166.905      91.514
  H     -900.000     170.956      93.557
  H     -899.270     169.377      93.319
  P     -890.500     169.192      94.725
  C     -889.370     166.923      94.067
  O     -890.440     167.590      94.725
  O     -891.940     169.521      95.339
  O     -889.410     169.861      95.474
  H     -891.840     169.817      96.264
  H     -889.493     165.865      94.169
  H     -888.441     167.219      94.508
  H     -889.372     167.184      93.029

 6  7  8  9  10  11  12  13  14  15  25  28  32  33  34  35 0
 6-311+G(2d,p)
 ****
 36  37  40 0
 6-311+G(2d,p)
 ****
 1  2  3  4  5  16  17  18  19  20  21  22  23  24 0
 3-21G
 ****
 26  27  29  30  31  38  39 41  42  43  44  45  46  47  48 0
 3-21G
 ****


