%nproc=1
%NoSave
%Mem=1900MB
#P OB98/GEN NMR

erre ene a

0 1
  C     -137.672     229.554      27.304
  O     -138.397     229.899      28.496
  P     -137.655     230.736      29.650
  C     -137.121     228.624      31.100
  O     -136.630     229.764      30.411
  C     -136.049     228.074      32.047
  O     -134.905     227.609      31.300
  C     -135.493     229.104      33.025
  O     -136.385     229.351      34.098
  C     -134.195     228.430      33.460
  O     -134.437     227.464      34.498
  C     -133.749     227.730      32.160
  N     -132.656     228.425      31.492
  C     -131.375     227.937      31.729
  O     -131.140     227.011      32.500
  N     -130.358     228.576      31.068
  C     -130.489     229.676      30.267
  O     -129.538     230.219      29.720
  C     -131.856     230.199      30.120
  C     -132.858     229.560      30.732
  O     -138.819     230.906      30.740
  O     -137.115     232.068      29.242
  H     -135.199     226.927      34.207
  H     -138.668     231.722      31.254
  H     -129.428     228.220      31.204
  H     -132.003     231.081      29.513
  H     -133.875     229.934      30.633
  H     -133.429     226.701      32.375
  H     -133.462     229.146      33.849
  H     -135.253     230.032      32.494
  H     -136.474     227.221      32.591
  H     -137.387     227.851      30.377
  H     -138.020     228.909      31.661
  P     -137.370     230.612      33.939
  C     -135.534     232.438      34.292
  O     -136.442     231.808      33.417
  O     -137.671     230.957      35.476
  O     -138.578     230.306      33.123
  H     -136.906     230.772      36.048
  H     -135.133     231.738      35.032
  H     -136.042     233.261      34.809
  H     -134.705     232.848      33.707
  H     -138.310     229.002      26.646
  H     -136.823     228.956      27.563
  H     -137.343     230.447      26.816

 3  4  5  6  7  8  9  10  11  12  13  23  28  29  30  31  32 0
 6-311+G(2d,p)
 ****
 33  34 0
 6-311+G(2d,p)
 ****
 1  2  14  15  16  17  18  19  20  21  22  24  25  26 0
 3-21G
 ****
 27  35  36  37  38  39  40  41  42  43  44  45 0
 3-21G
 ****


