%nproc=1
%NoSave
%Mem=1900MB
#P OB98/GEN NMR

erre ene a

0 1
  C      606.573     358.763    -359.482
  O      605.213     358.558    -359.811
  H      607.162     357.955    -359.928
  H      606.704     358.734    -358.401
  H      606.923     359.719    -359.886
  P      604.126     359.655    -359.362
  C      603.248     360.332    -361.687
  O      602.968     359.642    -360.478
  C      602.255     359.941    -362.782
  O      602.600     358.625    -363.279
  C      600.802     359.886    -362.293
  O      599.946     360.376    -363.332
  C      600.547     358.406    -362.076
  O      599.164     358.055    -362.210
  C      601.430     357.781    -363.161
  N      600.596     352.910    -364.234
  C      600.080     354.064    -364.822
  N      599.198     353.877    -365.840
  N      600.409     355.268    -364.451
  C      601.309     355.302    -363.434
  C      601.891     354.237    -362.774
  C      601.508     352.898    -363.177
  O      601.904     351.839    -362.682
  N      602.731     354.672    -361.781
  C      602.670     355.996    -361.852
  N      601.816     356.408    -362.827
  O      604.688     361.016    -359.067
  O      603.418     359.007    -358.086
  H      599.100     357.082    -362.051
  H      603.788     359.387    -357.262
  H      600.309     352.005    -364.558
  H      603.222     356.677    -361.205
  H      600.935     357.742    -364.145
  H      600.888     358.109    -361.080
  H      598.918     352.972    -366.179
  H      600.630     360.465    -361.368
  H      598.835     354.706    -366.290
  H      602.355     360.652    -363.610
  H      604.268     360.068    -362.007
  H      603.209     361.418    -361.510
  P      598.416     360.720    -362.973
  C      598.540     363.296    -362.839
  O      598.080     362.162    -363.577
  O      598.013     360.509    -361.552
  O      597.601     359.739    -363.964
  H      596.763     359.500    -363.543
  H      598.252     364.193    -363.347
  H      599.606     363.259    -362.757
  H      598.106     363.285    -361.861

 6  7  8  9  10  11  12  13  14  15  26  29  33  34 0
 6-311+G(2d,p)
 ****
 36  38  39  40  41 0
 6-311+G(2d,p)
 ****
 1  2  3  4  5  16  17  18  19  20  21  22  23  24  25 0
 3-21G
 ****
 27  28  30  31  32  35  37  42  43  44  45  46  47 0
 3-21G
 ****
 48  49 0
 3-21G
 ****


