%nproc=1
%NoSave
%Mem=1900MB
#P OB98/GEN NMR

erre ene a

0 1
  C      374.178    -813.275    1316.040
  O      375.456    -812.671    1316.277
  P      375.899    -811.283    1315.618
  C      375.787    -809.719    1317.679
  O      376.615    -810.368    1316.716
  C      376.611    -808.968    1318.725
  O      377.152    -809.854    1319.689
  C      377.799    -808.188    1318.163
  O      377.357    -806.998    1317.506
  C      378.619    -807.954    1319.420
  O      378.123    -806.824    1320.169
  C      378.363    -809.280    1320.205
  N      379.490    -810.200    1320.100
  C      380.537    -810.022    1321.009
  O      380.501    -809.073    1321.808
  N      381.594    -810.902    1320.977
  C      381.660    -811.822    1320.069
  N      382.723    -812.669    1320.100
  C      380.616    -811.989    1319.028
  C      379.569    -811.148    1319.115
  O      374.797    -810.578    1314.872
  O      377.102    -811.665    1314.605
  H      378.806    -806.599    1320.824
  H      377.090    -811.050    1313.848
  H      380.712    -812.774    1318.258
  H      378.766    -811.226    1318.403
  H      378.174    -809.071    1321.273
  H      379.668    -807.770    1319.211
  H      378.351    -808.830    1317.462
  H      375.910    -808.272    1319.238
  H      383.410    -812.508    1320.809
  H      375.173    -810.506    1318.178
  H      382.856    -813.408    1319.435
  H      375.102    -809.048    1317.142
  P      378.165    -806.455    1316.232
  C      376.305    -806.119    1314.479
  O      377.169    -805.490    1315.429
  O      378.841    -807.500    1315.403
  O      379.230    -805.420    1316.862
  H      380.012    -805.424    1316.298
  H      375.453    -805.451    1314.288
  H      375.939    -807.079    1314.855
  H      376.850    -806.257    1313.533
  H      374.111    -814.193    1316.585
  H      374.065    -813.472    1314.994
  H      373.404    -812.611    1316.364

 3  4  5  6  7  8  9  10  11  12  13  23  27  28  29  30  32 0
 6-311+G(2d,p)
 ****
 34  35 0
 6-311+G(2d,p)
 ****
 1  2  14  15  16  17  18  19  20  21  22  24  25  26 0
 3-21G
 ****
 31  33  36  37  38  39  40  41  42  43  44  45  46 0
 3-21G
 ****


