%nproc=1
%NoSave
%Mem=1900MB
#P OB98/GEN NMR

erre ene a

0 1
  C       71.613    -149.165       7.046
  O       72.962    -149.511       7.286
  H       70.969    -149.606       7.812
  H       71.516    -148.078       7.090
  H       71.303    -149.508       6.054
  P       73.321    -151.074       7.235
  C       73.908    -152.663       5.269
  O       73.198    -151.510       5.695
  C       73.050    -153.483       4.311
  O       71.831    -153.893       4.962
  C       72.614    -152.742       3.052
  O       73.645    -152.706       2.077
  C       71.450    -153.611       2.600
  O       71.951    -154.784       1.931
  C       70.806    -154.004       3.938
  N       65.907    -152.898       2.967
  C       66.731    -153.849       2.477
  N       68.018    -154.095       2.800
  C       68.437    -153.243       3.750
  C       67.710    -152.237       4.361
  C       66.383    -152.069       3.930
  N       65.570    -151.046       4.391
  N       68.487    -151.559       5.280
  C       69.668    -152.136       5.209
  N       69.685    -153.162       4.304
  O       72.046    -151.753       7.929
  O       74.592    -151.457       7.916
  H       71.204    -155.407       1.860
  H       72.247    -151.928       8.866
  H       66.302    -154.497       1.721
  H       70.535    -151.844       5.785
  H       70.459    -155.043       3.941
  H       70.779    -153.103       1.904
  H       72.241    -151.739       3.285
  H       73.610    -154.392       4.053
  H       74.164    -153.277       6.139
  H       64.873    -150.746       3.715
  H       66.060    -150.317       4.895
  H       74.830    -152.343       4.775
  P       73.577    -151.555       0.962
  C       73.922    -148.992       1.010
  O       73.579    -150.155       1.751
  O       72.079    -151.680       0.412
  O       74.569    -151.678      -0.142
  H       72.093    -151.815      -0.556
  H       73.884    -148.136       1.651
  H       73.229    -148.865       0.205
  H       74.911    -149.099       0.616

 6  7  8  9  10  11  12  13  14  15  25  28  32  33  34  35 0
 6-311+G(2d,p)
 ****
 36  39  40 0
 6-311+G(2d,p)
 ****
 1  2  3  4  5  16  17  18  19  20  21  22  23  24 0
 3-21G
 ****
 26  27  29  30  31  37  38  41  42  43  44  45  46  47  48 0
 3-21G
 ****


