%nproc=1
%NoSave
%Mem=1900MB
#P OB98/GEN NMR

erre ene a

0 1
  C     -495.078     175.881     980.052
  O     -494.558     175.062     981.079
  H     -495.605     176.727     980.507
  H     -495.792     175.310     979.448
  H     -494.276     176.265     979.416
  P     -493.551     173.893     980.644
  C     -492.443     174.034     982.995
  O     -493.030     173.208     982.001
  C     -491.747     173.179     984.047
  O     -492.758     172.474     984.824
  C     -490.801     172.106     983.464
  O     -489.674     171.977     984.326
  C     -491.637     170.842     983.519
  O     -490.867     169.642     983.528
  C     -492.414     171.073     984.818
  N     -493.608     170.235     984.908
  C     -493.770     169.462     986.053
  O     -493.020     169.502     987.032
  N     -494.852     168.624     986.056
  C     -495.750     168.469     985.036
  O     -496.691     167.676     985.080
  C     -495.527     169.303     983.852
  C     -494.481     170.131     983.844
  O     -492.267     174.691     980.125
  O     -494.077     172.934     979.633
  H     -492.346     174.874     979.167
  H     -490.342     169.648     984.365
  H     -494.982     168.056     986.879
  H     -496.217     169.189     983.025
  H     -494.273     170.754     982.961
  H     -491.770     170.887     985.687
  H     -492.314     170.800     982.661
  H     -490.453     172.322     982.442
  H     -491.203     173.824     984.740
  H     -493.225     174.623     983.487
  H     -491.732     174.719     982.522
  P     -488.268     172.549     983.812
  C     -487.353     171.989     986.202
  O     -487.159     171.939     984.798
  O     -488.388     174.083     984.250
  O     -488.040     172.322     982.358
  H     -488.879     174.206     985.096
  H     -486.517     171.538     986.694
  H     -488.246     171.458     986.458
  H     -487.443     173.009     986.514

 6  7  8  9  10  11  12  13  14  15  16  27  31  32  33  34  35 0
 6-311+G(2d,p)
 ****
 36  37 0
 6-311+G(2d,p)
 ****
 1  2  3  4  5  17  18  19  20  21  22  23  24  25 0
 3-21G
 ****
 26  28  29  30  38  39  40  41  42  43  44  45 0
 3-21G
 ****


