%nproc=1
%NoSave
%Mem=1900MB
#P OB98/GEN NMR

erre ene a

0 1
  C      300.156     173.464     311.114
  O      300.887     172.760     312.127
  P      300.949     173.230     313.659
  C      298.518     173.864     314.301
  O      299.538     172.868     314.347
  C      297.522     173.670     315.447
  O      296.969     172.330     315.411
  C      298.105     173.794     316.849
  O      298.400     175.137     317.198
  C      297.007     173.149     317.689
  O      295.970     174.090     318.002
  C      296.461     172.064     316.738
  N      296.794     170.717     317.167
  C      295.760     169.948     317.705
  O      294.642     170.445     317.877
  N      296.017     168.643     318.056
  C      297.227     168.185     317.972
  N      297.419     166.878     318.314
  C      298.375     168.999     317.539
  C      298.093     170.244     317.153
  O      301.357     174.654     313.843
  O      301.985     172.238     314.368
  H      302.386     172.676     315.139
  H      296.403     174.867     318.405
  H      299.374     168.585     317.523
  H      298.877     170.907     316.807
  H      295.371     172.150     316.653
  H      297.391     172.761     318.643
  H      299.018     173.184     316.917
  H      296.703     174.391     315.312
  H      296.606     166.340     318.595
  H      297.985     173.773     313.348
  H      298.316     166.412     318.263
  H      298.983     174.856     314.347
  P      299.947     175.550     317.269
  C      301.412     177.091     315.777
  O      300.359     176.144     315.840
  O      300.710     174.145     317.330
  O      300.305     176.409     318.438
  H      301.465     174.205     317.943
  H      301.878     177.022     314.791
  H      302.168     176.900     316.541
  H      301.006     178.094     315.907
  H      300.267     172.958     310.178
  H      300.535     174.461     311.028
  H      299.120     173.498     311.380

 3  4  5  6  7  8  9  10  11  12  13  24  27  28  29  30  32 0
 6-311+G(2d,p)
 ****
 34  35 0
 6-311+G(2d,p)
 ****
 1  2  14  15  16  17  18  19  20  21  22  23  25  26 0
 3-21G
 ****
 31  33  36  37  38  39  40  41  42  43  44  45  46 0
 3-21G
 ****


