%nproc=1
%NoSave
%Mem=1900MB
#P OB98/GEN NMR

erre ene a

0 1
  C      105.762    -780.550     542.780
  O      106.500    -780.959     541.650
  H      104.840    -781.138     542.827
  H      105.502    -779.494     542.694
  H      106.326    -780.726     543.701
  P      108.022    -780.469     541.483
  C      107.393    -777.965     541.316
  O      108.069    -778.972     542.068
  C      107.962    -776.585     541.661
  O      107.662    -775.685     540.545
  C      107.361    -775.966     542.943
  O      108.372    -775.192     543.590
  C      106.288    -775.056     542.364
  O      105.902    -774.065     543.273
  C      107.006    -774.534     541.112
  N      106.063    -773.920     540.177
  C      105.534    -772.689     540.537
  O      105.814    -772.103     541.580
  N      104.598    -772.160     539.687
  C      104.078    -772.789     538.594
  O      103.185    -772.304     537.906
  C      104.632    -774.119     538.288
  C      105.585    -774.609     539.085
  O      108.620    -780.640     540.129
  O      108.815    -781.291     542.610
  H      106.696    -773.604     543.615
  H      109.767    -781.334     542.397
  H      104.219    -771.261     539.926
  H      104.224    -774.651     537.439
  H      106.003    -775.603     538.902
  H      107.779    -773.795     541.377
  H      105.397    -775.642     542.094
  H      106.956    -776.720     543.628
  H      109.054    -776.661     541.731
  H      106.331    -778.011     541.581
  H      107.513    -778.165     540.246
  P      109.180    -775.754     544.865
  C      107.909    -774.570     546.761
  O      108.220    -775.820     546.167
  O      110.497    -775.066     545.117
  O      109.440    -777.303     544.520
  H      110.360    -777.530     544.723
  H      107.274    -774.726     547.608
  H      107.407    -773.951     546.047
  H      108.812    -774.090     547.076

 6  7  8  9  10  11  12  13  14  15  16  26  31  32  33  34  35 0
 6-311+G(2d,p)
 ****
 36  37 0
 6-311+G(2d,p)
 ****
 1  2  3  4  5  17  18  19  20  21  22  23  24  25 0
 3-21G
 ****
 27  28  29  30  38  39  40  41  42  43  44  45 0
 3-21G
 ****


