%nproc=1
%NoSave
%Mem=1900MB
#P OB98/GEN NMR

erre ene a

0 1
  C     -226.021     178.945       4.467
  O     -227.000     178.257       5.228
  P     -228.469     178.111       4.600
  C     -229.175     178.526       7.100
  O     -229.460     177.927       5.845
  C     -230.291     178.211       8.101
  O     -231.541     178.756       7.629
  C     -230.550     176.725       8.314
  O     -229.570     176.132       9.151
  C     -231.956     176.752       8.901
  O     -231.907     177.073      10.301
  C     -232.605     177.908       8.113
  N     -233.458     177.452       7.017
  C     -234.274     176.358       7.288
  O     -234.300     175.791       8.379
  N     -235.056     175.926       6.249
  C     -235.051     176.423       4.979
  O     -235.738     175.969       4.073
  C     -234.143     177.556       4.744
  C     -233.401     178.011       5.756
  O     -228.364     176.655       3.944
  O     -228.813     179.209       3.652
  H     -227.714     176.097       4.406
  H     -232.807     176.927      10.650
  H     -235.675     175.148       6.427
  H     -234.106     177.973       3.745
  H     -232.720     178.838       5.599
  H     -233.210     178.531       8.784
  H     -232.472     175.792       8.802
  H     -230.566     176.207       7.347
  H     -230.044     178.698       9.053
  H     -229.096     179.608       6.969
  H     -228.215     178.146       7.465
  P     -228.348     175.388       8.414
  C     -228.690     173.225       9.841
  O     -227.829     174.265       9.432
  O     -227.219     176.521       8.464
  O     -228.682     174.907       7.040
  H     -227.184     176.983       9.318
  H     -228.083     172.397      10.220
  H     -229.302     172.863       9.011
  H     -229.339     173.582      10.646
  H     -225.098     178.964       5.007
  H     -226.349     179.947       4.286
  H     -225.878     178.443       3.533

 3  4  5  6  7  8  9  10  11  12  13  24  28  29  30  31  32 0
 6-311+G(2d,p)
 ****
 33  34 0
 6-311+G(2d,p)
 ****
 1  2  14  15  16  17  18  19  20  21  22  23  25  26  27 0
 3-21G
 ****
 35  36  37  38  39  40  41  42  43  44  45 0
 3-21G
 ****


