%nproc=1
%NoSave
%Mem=1900MB
#P OB98/GEN NMR

erre ene a

0 1
  C      170.687    -128.955      22.298
  O      169.606    -129.186      23.173
  H      170.335    -129.091      21.270
  H      171.495    -129.667      22.483
  H      171.057    -127.931      22.409
  P      169.881    -129.242      24.756
  C      171.246    -131.403      24.524
  O      171.282    -130.033      24.903
  C      172.184    -132.249      25.390
  O      173.521    -131.679      25.357
  C      171.754    -132.343      26.859
  O      171.835    -133.704      27.291
  C      172.786    -131.495      27.591
  O      172.918    -131.869      28.960
  C      174.023    -131.710      26.708
  N      175.058    -130.702      26.924
  C      176.016    -130.988      27.903
  O      175.937    -132.028      28.562
  N      177.011    -130.077      28.144
  C      177.023    -128.952      27.500
  N      178.032    -128.085      27.791
  C      176.008    -128.585      26.490
  C      175.069    -129.505      26.248
  O      168.759    -129.798      25.568
  O      170.277    -127.741      25.150
  H      173.329    -132.762      28.999
  H      170.154    -127.614      26.123
  H      176.054    -127.631      25.987
  H      174.286    -129.325      25.516
  H      174.463    -132.700      26.889
  H      172.483    -130.440      27.556
  H      170.744    -131.984      27.036
  H      172.267    -133.246      24.933
  H      178.709    -128.373      28.489
  H      171.526    -131.482      23.467
  H      178.139    -127.178      27.359
  H      170.219    -131.768      24.654
  P      170.443    -134.402      27.688
  C      171.211    -134.520      30.161
  O      170.187    -134.141      29.251
  O      170.783    -135.964      27.608
  O      169.308    -134.034      26.787
  H      170.452    -136.339      26.771
  H      170.904    -134.288      31.160
  H      172.109    -133.985      29.931
  H      171.391    -135.572      30.078

 6  7  8  9  10  11  12  13  14  15  16  26  30  31  32  33  35 0
 6-311+G(2d,p)
 ****
 37  38 0
 6-311+G(2d,p)
 ****
 1  2  3  4  5  17  18  19  20  21  22  23  24  25 0
 3-21G
 ****
 27  28  29  34  36  39  40  41  42  43  44  45  46 0
 3-21G
 ****


