%nproc=1
%NoSave
%Mem=1900MB
#P OB98/GEN NMR

erre ene a

0 1
  C      -13.399     -72.794     -69.311
  O      -12.875     -72.630     -67.995
  P      -13.647     -73.351     -66.792
  C      -15.385     -71.456     -66.282
  O      -15.141     -72.769     -66.748
  C      -16.876     -71.256     -65.952
  O      -17.065     -69.891     -65.485
  C      -17.833     -71.418     -67.128
  O      -19.156     -71.631     -66.623
  C      -17.756     -70.053     -67.781
  O      -18.860     -69.822     -68.650
  C      -17.655     -69.111     -66.559
  N      -16.843     -67.902     -66.809
  C      -17.487     -66.747     -67.249
  O      -18.701     -66.669     -67.439
  N      -16.685     -65.664     -67.499
  C      -15.338     -65.614     -67.323
  O      -14.655     -64.646     -67.651
  C      -14.725     -66.807     -66.730
  C      -15.487     -67.879     -66.511
  O      -12.950     -72.753     -65.484
  O      -13.570     -74.842     -66.838
  H      -18.691     -68.957     -69.094
  H      -12.359     -73.418     -65.081
  H      -17.132     -64.844     -67.881
  H      -13.664     -66.778     -66.511
  H      -15.049     -68.783     -66.096
  H      -18.651     -68.772     -66.236
  H      -16.849     -69.981     -68.383
  H      -17.567     -72.217     -67.825
  H      -17.157     -71.926     -65.131
  H      -15.062     -70.727     -67.030
  H      -14.789     -71.267     -65.381
  P      -19.838     -73.061     -66.882
  C      -21.041     -72.209     -68.990
  O      -20.120     -73.144     -68.460
  O      -20.988     -73.402     -65.997
  O      -18.614     -74.081     -66.692
  H      -18.956     -74.976     -66.534
  H      -20.775     -72.002     -70.031
  H      -21.023     -71.266     -68.428
  H      -22.048     -72.632     -68.954
  H      -12.786     -72.261     -70.008
  H      -14.397     -72.411     -69.348
  H      -13.407     -73.833     -69.565

 3  4  5  6  7  8  9  10  11  12  13  23  28  29  30  31  32 0
 6-311+G(2d,p)
 ****
 33  34 0
 6-311+G(2d,p)
 ****
 1  2  14  15  16  17  18  19  20  21  22  24  25  26  27 0
 3-21G
 ****
 35  36  37  38  39  40  41  42  43  44  45 0
 3-21G
 ****


