%nproc=1
%NoSave
%Mem=1900MB
#P OB98/GEN NMR

erre ene a

0 1
  C      412.306    -197.355     108.215
  O      411.789    -198.347     107.359
  P      411.929    -198.313     105.774
  C      414.457    -198.945     105.558
  O      413.448    -197.954     105.403
  C      415.829    -198.400     105.143
  O      415.714    -197.829     103.815
  C      416.296    -197.269     106.079
  O      417.676    -197.332     106.417
  C      415.806    -196.017     105.365
  O      416.480    -194.835     105.770
  C      415.968    -196.409     103.900
  N      415.167    -192.221     101.135
  C      416.326    -192.646     101.754
  N      417.336    -191.748     101.797
  N      416.459    -193.819     102.316
  C      415.325    -194.559     102.295
  C      414.119    -194.246     101.708
  C      414.000    -192.960     101.063
  O      412.962    -192.499     100.598
  N      413.174    -195.209     101.944
  C      413.790    -196.091     102.706
  N      415.093    -195.719     102.973
  O      410.839    -197.623     105.018
  O      411.856    -199.887     105.409
  H      417.407    -194.906     105.470
  H      411.402    -199.959     104.545
  H      415.103    -191.271     100.787
  H      413.346    -196.986     103.114
  H      416.984    -196.228     103.546
  H      414.749    -195.884     105.621
  H      417.217    -190.793     101.504
  H      415.795    -197.345     107.048
  H      418.092    -191.935     102.454
  H      416.546    -199.226     105.092
  H      414.168    -199.779     104.910
  H      414.479    -199.312     106.588
  P      418.372    -197.067     107.827
  C      419.006    -199.380     108.748
  O      418.071    -198.319     108.783
  O      417.518    -195.896     108.500
  O      419.812    -196.680     107.750
  H      418.117    -195.280     108.967
  H      418.554    -200.258     109.216
  H      419.901    -199.097     109.303
  H      419.274    -199.621     107.711
  H      412.081    -197.607     109.230
  H      411.863    -196.411     107.976
  H      413.367    -197.293     108.089

 3  4  5  6  7  8  9  10  11  12  23  26  30  31 0
 6-311+G(2d,p)
 ****
 33  35  36  37  38 0
 6-311+G(2d,p)
 ****
 1  2  13  14  15  16  17  18  19  20  21  22  24  25 0
 3-21G
 ****
 27  28  29  32  34  39  40  41  42  43  44  45  46  47  48  49 0
 3-21G
 ****


