%nproc=1
%NoSave
%Mem=1900MB
#P OB98/GEN NMR

erre ene a

0 1
  C     -366.693     287.135     211.569
  O     -367.233     288.070     210.658
  P     -367.627     289.549     211.123
  C     -369.892     288.776     212.042
  O     -369.228     289.657     211.146
  C     -371.408     288.794     211.824
  O     -372.033     287.832     212.712
  C     -372.054     290.165     212.082
  O     -373.091     290.330     211.100
  C     -372.656     290.006     213.465
  O     -373.709     290.921     213.710
  C     -373.072     288.527     213.428
  N     -373.264     287.972     214.758
  C     -374.383     287.151     214.949
  O     -375.221     287.033     214.053
  N     -374.523     286.502     216.154
  C     -373.728     286.800     217.135
  N     -373.861     286.084     218.284
  C     -372.696     287.848     217.043
  C     -372.486     288.361     215.831
  O     -366.943     290.648     210.376
  O     -367.241     289.590     212.678
  H     -366.660     290.359     212.840
  H     -374.012     290.819     214.639
  H     -372.141     288.148     217.921
  H     -371.732     289.115     215.654
  H     -374.000     288.404     212.853
  H     -371.879     290.165     214.223
  H     -371.348     290.992     212.006
  H     -371.604     288.470     210.798
  H     -374.556     285.349     218.299
  H     -369.675     289.097     213.067
  H     -373.108     286.015     218.972
  H     -369.502     287.758     211.922
  P     -373.182     291.731     210.317
  C     -374.954     292.535     212.039
  O     -374.590     292.408     210.679
  O     -373.424     291.236     208.806
  O     -371.974     292.612     210.375
  H     -373.108     291.929     208.194
  H     -375.963     292.949     212.094
  H     -374.270     293.215     212.553
  H     -374.949     291.556     212.533
  H     -366.500     286.213     211.061
  H     -367.391     286.966     212.362
  H     -365.779     287.518     211.973

 3  4  5  6  7  8  9  10  11  12  13  24  27  28  29  30  32 0
 6-311+G(2d,p)
 ****
 34  35 0
 6-311+G(2d,p)
 ****
 1  2  14  15  16  17  18  19  20  21  22  23  25  26 0
 3-21G
 ****
 31  33  36  37  38  39  40  41  42  43  44  45  46 0
 3-21G
 ****


