%nproc=1
%NoSave
%Mem=1900MB
#P OB98/GEN NMR

erre ene a

0 1
  C      386.959      69.044      38.658
  O      387.566      70.235      39.168
  P      386.864      70.953      40.423
  C      388.728      70.453      42.172
  O      388.001      71.438      41.437
  C      390.122      70.978      42.524
  O      390.981      70.992      41.368
  C      390.116      72.413      43.030
  O      389.692      72.457      44.380
  C      391.560      72.834      42.819
  O      392.372      72.549      43.974
  C      392.002      71.977      41.613
  N      392.265      72.773      40.422
  C      393.424      72.440      39.705
  O      394.162      71.542      40.111
  N      393.717      73.159      38.578
  C      392.949      74.134      38.209
  N      393.297      74.812      37.082
  C      391.727      74.535      38.949
  C      391.449      73.810      40.035
  O      386.172      69.730      41.197
  O      385.865      71.996      40.037
  H      392.052      73.156      44.674
  H      385.348      70.026      41.624
  H      391.120      75.356      38.606
  H      390.580      74.030      40.643
  H      392.923      71.417      41.853
  H      391.643      73.910      42.638
  H      389.451      73.025      42.401
  H      390.565      70.314      43.284
  H      394.140      74.519      36.600
  H      388.810      69.530      41.592
  H      392.772      75.588      36.709
  H      388.166      70.198      43.076
  P      389.367      73.894      45.008
  C      386.849      73.422      45.257
  O      388.068      73.658      45.928
  O      388.729      74.670      43.750
  O      390.494      74.650      45.621
  H      388.565      75.607      43.986
  H      386.109      73.079      45.983
  H      386.974      72.657      44.490
  H      386.490      74.357      44.804
  H      387.530      68.679      37.830
  H      385.962      69.262      38.336
  H      386.931      68.301      39.427

 3  4  5  6  7  8  9  10  11  12  13  21  23  27  28  29  30  32 0
 6-311+G(2d,p)
 ****
 34  35 0
 6-311+G(2d,p)
 ****
 1  2  14  15  16  17  18  19  20  22  24  25  26 0
 3-21G
 ****
 31  33  36  37  38  39  40  41  42  43  44  45  46 0
 3-21G
 ****


