%nproc=1
%NoSave
%Mem=1900MB
#P OB98/GEN NMR

erre ene a

0 1
  C      987.946     740.353    -473.988
  O      988.740     739.668    -474.940
  H      987.037     739.779    -473.806
  H      987.670     741.347    -474.368
  H      988.492     740.457    -473.045
  P      990.080     740.361    -475.463
  C      991.742     738.385    -475.227
  O      990.931     739.150    -476.110
  C      992.746     737.551    -476.023
  O      992.078     736.498    -476.759
  C      993.530     738.353    -477.080
  O      994.535     739.180    -476.530
  C      994.119     737.187    -477.877
  O      995.218     736.606    -477.160
  C      992.908     736.196    -477.921
  N      992.104     736.333    -479.149
  C      992.716     735.905    -480.332
  O      993.862     735.455    -480.327
  N      992.028     736.029    -481.525
  C      990.835     736.562    -481.514
  N      990.229     736.724    -482.738
  C      990.151     737.016    -480.284
  C      990.835     736.872    -479.140
  O      990.818     741.216    -474.483
  O      989.631     741.164    -476.788
  H      995.544     735.858    -477.674
  H      990.433     741.617    -477.155
  H      989.165     737.458    -480.337
  H      990.410     737.198    -478.212
  H      993.252     735.167    -477.822
  H      994.493     737.482    -478.865
  H      992.844     738.907    -477.719
  H      993.423     737.078    -475.298
  H      990.733     736.437    -483.550
  H      991.090     737.748    -474.621
  H      989.446     737.363    -482.825
  H      992.303     739.052    -474.566
  P      994.588     740.715    -477.047
  C      995.945     741.132    -474.880
  O      995.794     741.406    -476.265
  O      993.285     741.351    -476.405
  O      994.672     740.878    -478.546
  H      992.522     741.322    -477.049
  H      996.792     741.665    -474.501
  H      996.092     740.082    -474.738
  H      995.065     741.443    -474.357

 6  7  8  9  10  11  12  13  14  15  16  26  30  31  32  33  35 0
 6-311+G(2d,p)
 ****
 37  38 0
 6-311+G(2d,p)
 ****
 1  2  3  4  5  17  18  19  20  21  22  23  24  25 0
 3-21G
 ****
 27  28  29  34  36  39  40  41  42  43  44  45  46 0
 3-21G
 ****


