%nproc=1
%NoSave
%Mem=1900MB
#P OB98/GEN NMR

erre ene a

0 1
  C      362.837     353.614    -187.764
  O      363.199     354.762    -188.514
  P      364.181     355.827    -187.824
  C      364.922     356.461    -190.231
  O      364.538     356.918    -188.940
  C      366.033     357.331    -190.828
  O      365.475     358.617    -191.198
  C      367.202     357.589    -189.881
  O      368.410     357.594    -190.658
  C      366.946     358.991    -189.362
  O      368.146     359.622    -188.924
  C      366.285     359.638    -190.586
  N      365.479     360.805    -190.228
  C      365.465     361.877    -191.133
  O      366.176     361.831    -192.147
  N      364.703     362.981    -190.854
  C      364.085     363.064    -189.713
  N      363.344     364.174    -189.473
  C      364.172     362.017    -188.664
  C      364.864     360.922    -189.001
  O      365.552     355.001    -187.661
  O      363.695     356.365    -186.513
  H      367.942     360.559    -188.709
  H      366.039     355.283    -186.863
  H      363.675     362.157    -187.715
  H      364.962     360.088    -188.297
  H      367.034     359.959    -191.315
  H      366.249     358.950    -188.510
  H      367.289     356.835    -189.087
  H      366.384     356.850    -191.751
  H      363.304     364.882    -190.199
  H      364.054     356.506    -190.896
  H      362.831     364.324    -188.614
  H      365.249     355.420    -190.158
  P      369.785     357.197    -189.932
  C      370.494     356.717    -192.358
  O      370.888     357.214    -191.088
  O      369.565     355.615    -189.710
  O      370.123     357.866    -188.642
  H      370.322     355.247    -189.211
  H      371.290     356.911    -193.074
  H      369.579     357.206    -192.688
  H      370.325     355.621    -192.301
  H      362.184     352.999    -188.347
  H      362.337     353.917    -186.868
  H      363.717     353.061    -187.512

 3  4  5  6  7  8  9  10  11  12  13  21  23  27  28  29  30  32 0
 6-311+G(2d,p)
 ****
 34  35 0
 6-311+G(2d,p)
 ****
 1  2  14  15  16  17  18  19  20  22  24  25  26 0
 3-21G
 ****
 31  33  36  37  38  39  40  41  42  43  44  45  46 0
 3-21G
 ****


