%nproc=1
%NoSave
%Mem=1900MB
#P OB98/GEN NMR

erre ene a

0 1
  C      128.461      36.554      65.028
  O      127.693      36.631      63.825
  P      126.171      36.125      63.794
  C      126.645      33.975      62.487
  O      126.149      34.519      63.705
  C      126.594      32.442      62.439
  O      127.629      31.860      63.272
  C      125.260      31.827      62.885
  O      125.089      30.645      62.097
  C      125.540      31.476      64.335
  O      124.618      30.518      64.851
  C      126.998      31.012      64.250
  N      127.678      31.071      65.541
  C      127.752      29.885      66.275
  O      127.205      28.860      65.857
  N      128.399      29.896      67.488
  C      128.839      31.017      67.971
  N      129.448      30.969      69.188
  C      128.709      32.310      67.269
  C      128.130      32.261      66.065
  O      125.304      36.812      62.783
  O      125.640      36.421      65.279
  H      124.590      29.755      64.231
  H      124.680      36.606      65.246
  H      129.068      33.223      67.721
  H      127.994      33.156      65.473
  H      127.055      29.978      63.878
  H      125.462      32.376      64.958
  H      124.410      32.505      62.770
  H      126.814      32.140      61.409
  H      129.496      30.065      69.648
  H      127.686      34.301      62.358
  H      129.723      31.794      69.704
  H      126.072      34.392      61.650
  P      123.971      30.542      60.956
  C      122.087      29.965      62.594
  O      122.570      30.902      61.647
  O      123.973      29.261      60.187
  O      124.240      31.799      59.994
  H      123.796      31.650      59.141
  H      121.255      30.414      63.142
  H      122.875      29.690      63.303
  H      121.734      29.070      62.077
  H      129.444      36.937      64.849
  H      128.527      35.534      65.344
  H      127.986      37.134      65.792

 3  4  5  6  7  8  9  10  11  12  13  23  27  28  29  30  32 0
 6-311+G(2d,p)
 ****
 34  35 0
 6-311+G(2d,p)
 ****
 1  2  14  15  16  17  18  19  20  21  22  24  25  26 0
 3-21G
 ****
 31  33  36  37  38  39  40  41  42  43  44  45  46 0
 3-21G
 ****


