%nproc=1
%NoSave
%Mem=1900MB
#P OB98/GEN NMR

erre ene a

0 1
  C     -172.012     -19.633     -47.026
  O     -171.443     -18.756     -47.978
  H     -172.954     -20.026     -47.425
  H     -172.223     -19.093     -46.096
  H     -171.336     -20.469     -46.825
  P     -170.028     -18.102     -47.602
  C     -169.205     -16.427     -45.785
  O     -170.273     -17.233     -46.272
  C     -169.616     -15.762     -44.470
  O     -169.822     -16.778     -43.460
  C     -168.569     -14.819     -43.894
  O     -168.580     -13.553     -44.534
  C     -168.995     -14.760     -42.432
  O     -170.048     -13.811     -42.227
  C     -169.517     -16.182     -42.181
  N     -167.691     -17.325     -37.557
  C     -168.703     -16.518     -37.956
  N     -169.140     -16.283     -39.214
  C     -168.418     -16.992     -40.103
  C     -167.362     -17.848     -39.845
  C     -166.998     -18.010     -38.497
  N     -165.944     -18.802     -38.093
  N     -166.848     -18.357     -41.025
  C     -167.594     -17.823     -41.976
  N     -168.558     -17.000     -41.465
  O     -169.833     -16.995     -48.745
  O     -168.880     -19.052     -47.539
  H     -170.280     -13.850     -41.278
  H     -169.293     -17.367     -49.471
  H     -169.225     -15.991     -37.161
  H     -167.466     -17.994     -43.041
  H     -170.447     -16.183     -41.597
  H     -168.165     -14.467     -41.783
  H     -167.571     -15.273     -43.950
  H     -170.570     -15.242     -44.628
  H     -168.973     -15.653     -46.522
  H     -168.321     -17.060     -45.638
  H     -165.730     -18.853     -37.107
  H     -165.358     -19.228     -38.792
  P     -167.297     -12.607     -44.385
  C     -166.411     -10.891     -42.641
  O     -167.415     -11.835     -42.982
  O     -167.560     -11.461     -45.475
  O     -165.987     -13.296     -44.603
  H     -167.041     -11.636     -46.284
  H     -166.631     -10.466     -41.684
  H     -166.386     -10.116     -43.378
  H     -165.460     -11.380     -42.604

 6  7  8  9  10  11  12  13  14  15  25  28  32  33  34  35 0
 6-311+G(2d,p)
 ****
 36  37  40 0
 6-311+G(2d,p)
 ****
 1  2  3  4  5  16  17  18  19  20  21  22  23  24 0
 3-21G
 ****
 26  27  29  30  31  38  39 41  42  43  44  45  46  47  48 0
 3-21G
 ****


