%nproc=1
%NoSave
%Mem=1900MB
#P OB98/GEN NMR

erre ene a

0 1
  C      266.766    -644.951     417.251
  O      266.501    -645.962     418.204
  P      267.424    -647.273     418.251
  C      268.475    -648.766     420.063
  O      267.536    -647.733     419.785
  C      268.364    -649.208     421.525
  O      268.677    -648.103     422.405
  C      266.979    -649.681     421.928
  O      266.723    -650.985     421.443
  C      267.064    -649.566     423.446
  O      267.720    -650.720     424.002
  C      267.931    -648.314     423.622
  N      267.169    -644.658     427.092
  C      267.894    -645.797     427.128
  N      268.017    -646.738     426.176
  C      267.269    -646.429     425.098
  C      266.442    -645.321     424.937
  C      266.432    -644.392     425.992
  N      265.746    -643.194     425.939
  N      265.815    -645.374     423.710
  C      266.233    -646.493     423.155
  N      267.160    -647.127     423.932
  O      268.725    -647.162     417.537
  O      266.514    -648.409     417.599
  H      267.166    -651.494     423.785
  H      266.951    -648.757     416.805
  H      268.466    -645.958     428.039
  H      265.915    -646.868     422.197
  H      268.670    -648.438     424.426
  H      266.077    -649.499     423.920
  H      266.222    -648.976     421.556
  H      269.114    -649.998     421.697
  H      269.482    -648.386     419.861
  H      265.912    -642.535     426.693
  H      265.444    -642.848     425.032
  H      268.285    -649.615     419.392
  P      265.233    -651.554     421.427
  C      263.795    -652.961     419.832
  O      265.055    -652.364     420.045
  O      264.154    -650.559     421.714
  O      265.258    -652.719     422.517
  H      264.384    -652.789     422.943
  H      263.715    -653.885     420.421
  H      263.698    -653.211     418.766
  H      262.986    -652.273     420.107
  H      266.056    -644.158     417.365
  H      266.688    -645.361     416.266
  H      267.754    -644.569     417.401

 3  4  5  6  7  8  9  10  11  12  22  25  29  30  31  32 0
 6-311+G(2d,p)
 ****
 33  36  37 0
 6-311+G(2d,p)
 ****
 1  2  13  14  15  16  17  18  19  20  21  23  24  26 0
 3-21G
 ****
 27  28  34  35  38  39  40  41  42  43  44  45  46  47  48 0
 3-21G
 ****


