%nproc=1
%NoSave
%Mem=1900MB
#P OB98/GEN NMR

erre ene a

0 1
  C       63.610    -401.634    -564.653
  O       62.998    -400.546    -565.314
  P       61.851    -399.686    -564.596
  C       60.714    -399.525    -566.913
  O       61.176    -398.813    -565.767
  C       59.744    -398.670    -567.729
  O       58.646    -398.234    -566.916
  C       60.367    -397.405    -568.305
  O       61.160    -397.701    -569.434
  C       59.124    -396.575    -568.600
  O       58.540    -396.946    -569.860
  C       58.189    -396.965    -567.428
  N       58.145    -395.937    -566.392
  C       57.758    -394.659    -566.813
  O       57.509    -394.444    -567.996
  N       57.703    -393.649    -565.878
  C       58.036    -393.892    -564.653
  N       57.971    -392.851    -563.780
  C       58.477    -395.223    -564.171
  C       58.512    -396.187    -565.090
  O       62.281    -398.924    -563.388
  O       60.721    -400.786    -564.282
  H       57.703    -396.439    -569.932
  H       60.985    -401.367    -563.527
  H       58.759    -395.372    -563.143
  H       58.831    -397.197    -564.826
  H       57.163    -397.129    -567.794
  H       59.348    -395.504    -568.648
  H       60.967    -396.901    -567.529
  H       59.347    -399.296    -568.536
  H       57.696    -391.945    -564.153
  H       60.201    -400.425    -566.565
  H       58.246    -392.921    -562.807
  H       61.574    -399.831    -567.515
  P       62.374    -396.729    -569.840
  C       61.513    -396.770    -572.257
  O       62.639    -396.912    -571.405
  O       63.579    -396.820    -568.968
  O       61.722    -395.268    -569.756
  H       62.343    -394.675    -569.301
  H       61.870    -396.585    -573.275
  H       60.887    -395.939    -571.938
  H       60.932    -397.700    -572.247
  H       64.344    -402.074    -565.295
  H       62.868    -402.364    -564.406
  H       64.082    -401.288    -563.757

 3  4  5  6  7  8  9  10  11  12  13  23  27  28  29  30  32 0
 6-311+G(2d,p)
 ****
 34  35 0
 6-311+G(2d,p)
 ****
 1  2  14  15  16  17  18  19  20  21  22  24  25  26 0
 3-21G
 ****
 31  33  36  37  38  39  40  41  42  43  44  45  46 0
 3-21G
 ****


