%nproc=1
%NoSave
%Mem=1900MB
#P OB98/GEN NMR

erre ene a

0 1
  C       27.243      -5.270     250.679
  O       27.115      -5.013     252.066
  H       28.256      -5.630     250.483
  H       27.078      -4.352     250.110
  H       26.528      -6.039     250.373
  P       25.681      -4.496     252.568
  C       26.639      -2.093     252.409
  O       25.597      -2.985     252.030
  C       26.090      -0.682     252.601
  O       25.498      -0.198     251.382
  C       25.003      -0.571     253.664
  O       25.570      -0.511     254.963
  C       24.355       0.750     253.269
  O       25.153       1.846     253.757
  C       24.413       0.703     251.731
  N       22.266      -0.583     247.248
  C       23.458      -0.023     247.544
  N       23.945       0.329     248.752
  C       23.058       0.053     249.724
  C       21.802      -0.519     249.573
  C       21.412      -0.851     248.264
  N       20.197      -1.433     247.968
  N       21.176      -0.651     250.794
  C       22.060      -0.218     251.672
  N       23.201       0.251     251.070
  O       25.388      -4.701     254.014
  O       24.707      -5.272     251.558
  H       24.755       2.672     253.418
  H       25.095      -5.304     250.665
  H       24.111       0.163     246.696
  H       21.931      -0.240     252.748
  H       24.653       1.686     251.305
  H       23.358       0.866     253.698
  H       24.264      -1.374     253.568
  H       26.937      -0.023     252.835
  H       27.430      -2.085     251.650
  H       19.928      -1.478     246.997
  H       19.517      -1.516     248.709
  H       27.064      -2.465     253.347
  P       24.837      -1.207     256.207
  C       24.011       1.102     256.983
  O       23.639      -0.227     256.639
  O       25.737      -1.615     257.324
  O       24.072      -2.461     255.574
  H       24.106      -3.226     256.180
  H       23.138       1.659     257.252
  H       24.487       1.567     256.145
  H       24.689       1.080     257.811

 6  7  8  9  10  11  12  13  14  15  25  28  32  33  34  35 0
 6-311+G(2d,p)
 ****
 36  39  40 0
 6-311+G(2d,p)
 ****
 1  2  3  4  5  16  17  18  19  20  21  22  23  24 0
 3-21G
 ****
 26  27  29  30  31  37  38  41  42  43  44  45  46  47 0
 3-21G
 ****
 48 0
 3-21G
 ****


