%nproc=1
%NoSave
%Mem=1900MB
#P OB98/GEN NMR

erre ene a

0 1
  C      227.559    -267.741    -230.063
  O      227.436    -267.740    -231.471
  H      228.542    -268.137    -229.800
  H      226.794    -268.384    -229.618
  H      227.471    -266.727    -229.664
  P      226.117    -267.113    -232.135
  C      225.008    -269.344    -232.769
  O      224.943    -268.193    -231.940
  C      224.368    -270.544    -232.074
  O      225.199    -270.921    -230.944
  C      222.953    -270.274    -231.549
  O      222.167    -271.448    -231.730
  C      223.169    -270.027    -230.065
  O      222.010    -270.339    -229.292
  C      224.363    -270.935    -229.768
  N      226.901    -272.463    -225.675
  C      226.338    -273.194    -226.698
  N      226.440    -274.544    -226.613
  N      225.722    -272.660    -227.719
  C      225.703    -271.306    -227.687
  C      226.222    -270.467    -226.728
  C      226.893    -271.073    -225.593
  O      227.397    -270.475    -224.653
  N      225.980    -269.151    -227.036
  C      225.313    -269.196    -228.175
  N      225.110    -270.478    -228.605
  O      226.276    -266.618    -233.538
  O      225.703    -265.937    -231.134
  H      221.791    -271.280    -229.471
  H      225.992    -265.072    -231.479
  H      227.354    -272.928    -224.909
  H      224.947    -268.334    -228.724
  H      224.059    -271.971    -229.568
  H      223.423    -268.975    -229.897
  H      226.916    -275.023    -225.864
  H      222.475    -269.420    -232.042
  H      226.054    -275.098    -227.365
  H      224.372    -271.392    -232.767
  H      226.063    -269.556    -232.981
  H      224.493    -269.142    -233.715
  P      221.602    -271.783    -233.195
  C      219.127    -271.060    -233.148
  O      220.454    -270.717    -233.544
  O      221.248    -273.209    -233.442
  O      222.811    -271.319    -234.150
  H      222.804    -271.870    -234.957
  H      218.456    -270.277    -233.433
  H      219.094    -271.189    -232.086
  H      218.836    -271.971    -233.627

 6  7  8  9  10  11  12  13  14  15  26  29  33  34 0
 6-311+G(2d,p)
 ****
 36  38  39  40  41 0
 6-311+G(2d,p)
 ****
 1  2  3  4  5  16  17  18  19  20  21  22  23  24  25 0
 3-21G
 ****
 27  28  30  31  32  35  37  42  43  44  45  46  47 0
 3-21G
 ****
 48  49 0
 3-21G
 ****


