%nproc=1
%NoSave
%Mem=1900MB
#P OB98/GEN NMR

erre ene a

0 1
  C      366.988     120.565    -217.017
  O      366.918     119.219    -217.443
  H      367.902     121.010    -217.417
  H      367.023     120.614    -215.927
  H      366.131     121.135    -217.386
  P      365.588     118.380    -217.133
  C      366.383     116.904    -219.091
  O      365.783     116.936    -217.801
  C      367.123     115.581    -219.285
  O      366.356     114.498    -218.715
  C      367.335     115.204    -220.744
  O      368.366     115.967    -221.335
  C      367.622     113.719    -220.617
  O      368.991     113.484    -220.265
  C      366.681     113.306    -219.462
  N      365.473     112.640    -219.950
  C      365.633     111.339    -220.414
  O      366.711     110.748    -220.419
  N      364.510     110.752    -220.935
  C      363.316     111.377    -221.160
  O      362.425     110.896    -221.850
  C      363.190     112.727    -220.595
  C      364.259     113.294    -220.035
  O      364.302     119.063    -217.459
  O      365.701     118.065    -215.566
  H      365.116     118.673    -215.075
  H      369.524     113.958    -220.934
  H      364.628     109.822    -221.314
  H      362.233     113.230    -220.688
  H      364.200     114.303    -219.638
  H      367.199     112.627    -218.772
  H      367.423     113.190    -221.549
  H      366.399     115.339    -221.303
  H      368.081     115.641    -218.753
  H      367.094     117.733    -219.167
  H      365.603     117.029    -219.851
  P      368.368     116.246    -222.913
  C      370.145     118.075    -222.598
  O      369.776     116.897    -223.309
  O      367.173     116.978    -223.430
  O      368.460     114.785    -223.564
  H      367.762     114.698    -224.243
  H      371.097     118.417    -222.945
  H      370.204     117.857    -221.552
  H      369.411     118.836    -222.763

 6  7  8  9  10  11  12  13  14  15  16  27  31  32  33  34  35 0
 6-311+G(2d,p)
 ****
 36  37 0
 6-311+G(2d,p)
 ****
 1  2  3  4  5  17  18  19  20  21  22  23  24  25 0
 3-21G
 ****
 26  28  29  30  38  39  40  41  42  43  44  45 0
 3-21G
 ****


