%nproc=1
%NoSave
%Mem=1900MB
#P OB98/GEN NMR

erre ene a

0 1
  C     -166.837     -24.540     365.305
  O     -168.123     -24.413     365.870
  P     -168.993     -23.086     365.627
  C     -171.194     -24.403     365.397
  O     -170.263     -23.534     364.753
  C     -171.652     -25.485     364.425
  O     -170.578     -26.414     364.127
  C     -172.770     -26.374     364.965
  O     -174.023     -25.772     365.188
  C     -172.721     -27.533     363.989
  O     -173.414     -27.228     362.776
  C     -171.198     -27.661     363.726
  N     -170.613     -28.808     364.420
  C     -170.551     -29.988     363.689
  O     -170.950     -30.097     362.532
  N     -170.035     -31.069     364.353
  C     -169.627     -31.099     365.652
  O     -169.216     -32.115     366.198
  C     -169.736     -29.822     366.379
  C     -170.218     -28.750     365.739
  O     -168.238     -21.923     365.076
  O     -169.649     -22.812     367.064
  H     -173.023     -26.411     362.412
  H     -170.214     -23.531     367.397
  H     -169.991     -31.942     363.843
  H     -169.413     -29.805     367.412
  H     -170.308     -27.797     366.255
  H     -171.005     -27.773     362.650
  H     -173.184     -28.438     364.402
  H     -172.450     -26.763     365.938
  H     -171.934     -25.011     363.483
  H     -172.062     -23.816     365.716
  H     -170.729     -24.837     366.291
  P     -174.909     -26.032     366.501
  C     -175.247     -23.595     367.318
  O     -174.628     -24.843     367.540
  O     -174.920     -27.427     367.032
  O     -176.382     -25.667     365.968
  H     -177.033     -26.215     366.445
  H     -174.912     -22.898     368.094
  H     -176.333     -23.688     367.376
  H     -174.956     -23.193     366.342
  H     -166.420     -25.487     365.578
  H     -166.208     -23.755     365.669
  H     -166.908     -24.475     364.239

 3  4  5  6  7  8  9  10  11  12  13  23  28  29  30  31  32 0
 6-311+G(2d,p)
 ****
 33  34 0
 6-311+G(2d,p)
 ****
 1  2  14  15  16  17  18  19  20  21  22  24  25  26  27 0
 3-21G
 ****
 35  36  37  38  39  40  41  42  43  44  45 0
 3-21G
 ****


