%nproc=1
%NoSave
%Mem=1900MB
#P OB98/GEN NMR

erre ene a

0 1
  C     -251.118    -468.987     277.652
  O     -249.729    -468.818     277.440
  H     -251.271    -469.914     278.214
  H     -251.621    -469.070     276.685
  H     -251.538    -468.153     278.222
  P     -249.175    -467.366     277.052
  C     -249.658    -467.402     274.521
  O     -248.659    -467.425     275.536
  C     -249.079    -467.744     273.141
  O     -248.128    -466.737     272.742
  C     -248.307    -469.076     273.143
  O     -249.107    -470.230     272.976
  C     -247.357    -468.881     271.972
  O     -247.994    -469.243     270.734
  C     -247.071    -467.376     272.004
  N     -242.411    -465.359     271.384
  C     -243.418    -465.529     270.450
  N     -243.122    -465.177     269.173
  N     -244.595    -466.028     270.731
  C     -244.711    -466.421     272.031
  C     -243.784    -466.317     273.043
  C     -242.504    -465.716     272.724
  O     -241.573    -465.544     273.509
  N     -244.271    -466.828     274.218
  C     -245.449    -467.309     273.900
  N     -245.773    -467.066     272.590
  O     -247.807    -467.248     277.884
  O     -250.100    -466.228     277.376
  H     -247.380    -469.053     270.003
  H     -247.602    -466.310     278.059
  H     -241.533    -464.943     271.107
  H     -246.119    -467.817     274.597
  H     -247.073    -466.946     270.997
  H     -246.463    -469.511     272.068
  H     -242.197    -464.902     268.888
  H     -247.708    -469.158     274.060
  H     -243.721    -465.535     268.440
  H     -249.878    -467.740     272.402
  H     -250.073    -466.397     274.504
  H     -250.473    -468.086     274.766
  P     -248.708    -471.584     273.734
  C     -248.318    -473.016     271.595
  O     -249.095    -472.800     272.748
  O     -249.812    -471.676     274.890
  O     -247.327    -471.630     274.271
  H     -249.454    -471.325     275.722
  H     -248.706    -473.854     271.055
  H     -247.305    -473.212     271.879
  H     -248.352    -472.145     270.974

 6  7  8  9  10  11  12  13  14  15  26  29  33  34 0
 6-311+G(2d,p)
 ****
 36  38  39  40  41 0
 6-311+G(2d,p)
 ****
 1  2  3  4  5  16  17  18  19  20  21  22  23  24  25 0
 3-21G
 ****
 27  28  30  31  32  35  37  42  43  44  45  46  47 0
 3-21G
 ****
 48  49 0
 3-21G
 ****


