%nproc=1
%NoSave
%Mem=1900MB
#P OB98/GEN NMR

erre ene a

0 1
  C      383.249     159.147    -956.011
  O      383.719     158.392    -957.115
  H      383.560     158.679    -955.081
  H      383.670     160.151    -956.068
  H      382.158     159.218    -956.048
  P      383.244     156.868    -957.207
  C      381.773     157.534    -959.240
  O      381.840     156.861    -957.987
  C      380.770     156.841    -960.161
  O      381.346     155.594    -960.607
  C      379.404     156.534    -959.504
  O      378.355     157.149    -960.250
  C      379.262     155.023    -959.635
  O      377.935     154.612    -959.973
  C      380.261     154.651    -960.729
  N      378.791     149.773    -960.623
  C      378.218     150.876    -961.167
  N      378.710     152.130    -961.257
  C      379.952     152.185    -960.732
  C      380.671     151.150    -960.165
  C      380.038     149.895    -960.118
  N      380.614     148.786    -959.521
  N      381.912     151.598    -959.738
  C      381.911     152.885    -959.993
  N      380.729     153.300    -960.576
  O      382.836     156.519    -955.691
  O      384.258     155.916    -957.740
  H      377.853     154.687    -960.941
  H      383.234     155.664    -955.433
  H      377.212     150.740    -961.576
  H      382.703     153.587    -959.735
  H      379.836     154.765    -961.734
  H      379.526     154.558    -958.668
  H      379.364     156.852    -958.461
  H      380.620     157.473    -961.043
  H      382.756     157.518    -959.719
  H      380.038     147.965    -959.427
  H      381.484     148.895    -959.048
  H      381.489     158.576    -959.063
  P      377.408     158.181    -959.443
  C      377.325     160.055    -961.252
  O      377.773     159.669    -959.964
  O      378.024     158.157    -957.970
  O      375.963     157.808    -959.456
  H      377.347     158.384    -957.317
  H      377.641     161.057    -961.454
  H      376.257     160.004    -961.288
  H      377.739     159.396    -961.986

 6  7  8  9  10  11  12  13  14  15  25  28  32  33  34  35 0
 6-311+G(2d,p)
 ****
 36  39  40 0
 6-311+G(2d,p)
 ****
 1  2  3  4  5  16  17  18  19  20  21  22  23  24 0
 3-21G
 ****
 26  27  29  30  31  37  38  41  42  43  44  45  46  47  48 0
 3-21G
 ****


