%nproc=1
%NoSave
%Mem=1900MB
#P OB98/GEN NMR

erre ene a

0 1
  C      -56.575    -138.856      67.634
  O      -56.446    -137.998      66.518
  H      -57.011    -139.810      67.329
  H      -55.583    -139.041      68.055
  H      -57.202    -138.389      68.399
  P      -57.794    -137.628      65.730
  C      -58.032    -139.753      64.246
  O      -57.673    -138.380      64.316
  C      -58.632    -140.047      62.876
  O      -58.920    -141.459      62.752
  C      -59.952    -139.330      62.616
  O      -59.769    -137.992      62.187
  C      -60.527    -140.192      61.505
  O      -59.873    -139.883      60.261
  C      -60.140    -141.602      61.975
  N      -63.532    -145.427      62.244
  C      -62.620    -145.095      61.304
  N      -61.740    -144.074      61.318
  C      -61.854    -143.362      62.449
  C      -62.731    -143.584      63.499
  C      -63.608    -144.674      63.366
  N      -64.561    -144.997      64.305
  N      -62.567    -142.626      64.481
  C      -61.595    -141.854      64.038
  N      -61.154    -142.238      62.800
  O      -57.596    -136.089      65.337
  O      -59.069    -137.887      66.461
  H      -59.768    -138.914      60.227
  H      -58.445    -135.700      65.052
  H      -62.598    -145.731      60.425
  H      -61.186    -141.004      64.567
  H      -59.926    -142.281      61.142
  H      -61.597    -140.028      61.354
  H      -60.616    -139.381      63.486
  H      -57.887    -139.791      62.112
  H      -58.770    -139.969      65.026
  H      -65.237    -145.700      64.053
  H      -64.724    -144.359      65.070
  H      -57.143    -140.370      64.410
  P      -60.822    -136.895      62.709
  C      -62.525    -137.442      60.824
  O      -61.694    -136.461      61.433
  O      -59.902    -135.617      62.981
  O      -61.597    -137.305      63.919
  H      -60.252    -135.087      63.722
  H      -63.040    -137.007      59.993
  H      -63.238    -137.799      61.538
  H      -61.923    -138.258      60.483

 6  7  8  9  10  11  12  13  14  15  25  28  32  33  34  35 0
 6-311+G(2d,p)
 ****
 36  39  40 0
 6-311+G(2d,p)
 ****
 1  2  3  4  5  16  17  18  19  20  21  22  23  24 0
 3-21G
 ****
 26  27  29  30  31  37  38  41  42  43  44  45  46  47 0
 3-21G
 ****
 48 0
 3-21G
 ****


