%nproc=1
%NoSave
%Mem=1900MB
#P OB98/GEN NMR

erre ene a

0 1
  C     -209.345      77.059      63.997
  O     -208.381      77.105      62.963
  H     -209.256      77.967      64.599
  H     -209.164      76.195      64.640
  H     -210.357      77.011      63.586
  P     -208.430      75.992      61.812
  C     -207.723      73.514      61.676
  O     -208.141      74.579      62.517
  C     -207.989      72.173      62.358
  O     -209.304      72.170      62.953
  C     -207.957      70.976      61.416
  O     -206.626      70.633      61.077
  C     -208.699      69.940      62.247
  O     -207.824      69.357      63.229
  C     -209.786      70.809      62.923
  N     -211.084      70.725      62.255
  C     -212.153      70.285      63.027
  O     -212.036      69.942      64.203
  N     -213.373      70.238      62.392
  C     -213.596      70.502      61.075
  O     -214.697      70.390      60.539
  C     -212.422      70.926      60.293
  C     -211.240      71.020      60.912
  O     -207.598      76.268      60.602
  O     -209.987      75.898      61.443
  H     -207.103      68.919      62.735
  H     -210.164      76.401      60.627
  H     -214.153      69.911      62.935
  H     -212.564      71.142      59.242
  H     -210.361      71.331      60.354
  H     -209.922      70.504      63.969
  H     -209.091      69.121      61.647
  H     -208.549      71.188      60.514
  H     -207.256      72.054      63.167
  H     -206.646      73.619      61.484
  H     -208.265      73.580      60.724
  P     -206.227      70.311      59.561
  C     -206.686      68.471      57.836
  O     -206.845      68.875      59.190
  O     -204.776      70.466      59.237
  O     -207.121      71.323      58.698
  H     -206.561      72.040      58.348
  H     -207.130      67.507      57.697
  H     -205.644      68.421      57.599
  H     -207.165      69.180      57.194

 6  7  8  9  10  11  12  13  14  15  16  26  31  32  33  34  35 0
 6-311+G(2d,p)
 ****
 36  37 0
 6-311+G(2d,p)
 ****
 1  2  3  4  5  17  18  19  20  21  22  23  24  25 0
 3-21G
 ****
 27  28  29  30  38  39  40  41  42  43  44  45 0
 3-21G
 ****


