%nproc=1
%NoSave
%Mem=1900MB
#P OB98/GEN NMR

erre ene a

0 1
  C      189.032     180.840     367.499
  O      187.790     180.375     367.012
  H      189.225     181.829     367.077
  H      189.828     180.161     367.180
  H      189.030     180.917     368.588
  P      187.099     179.127     367.738
  C      187.277     176.560     367.512
  O      187.904     177.813     367.280
  C      188.253     175.405     367.299
  O      188.852     175.506     365.983
  C      189.413     175.479     368.310
  O      189.952     174.198     368.606
  C      190.453     176.295     367.571
  O      191.774     176.111     368.076
  C      190.253     175.809     366.136
  N      193.684     179.288     364.696
  C      193.586     178.608     365.896
  N      194.506     178.902     366.845
  N      192.655     177.722     366.148
  C      191.757     177.576     365.136
  C      191.742     178.219     363.917
  C      192.804     179.164     363.637
  O      192.940     179.806     362.601
  N      190.662     177.824     363.159
  C      190.023     176.955     363.921
  N      190.660     176.764     365.129
  O      185.704     178.962     366.962
  O      186.894     179.262     369.216
  H      191.734     176.207     369.044
  H      185.049     178.518     367.532
  H      194.437     179.947     364.553
  H      189.117     176.442     363.649
  H      190.824     174.883     365.963
  H      190.205     177.364     367.693
  H      195.126     179.691     366.760
  H      189.107     175.962     369.242
  H      194.275     178.638     367.808
  H      187.732     174.443     367.334
  H      186.443     176.478     366.813
  H      186.862     176.530     368.527
  P      189.323     173.387     369.846
  C      189.611     173.505     372.454
  O      190.123     173.811     371.165
  O      189.769     171.875     369.585
  O      187.835     173.527     369.952
  H      189.023     171.353     369.264
  H      190.285     173.868     373.201
  H      189.506     172.445     372.554
  H      188.656     173.971     372.578

 6  7  8  9  10  11  12  13  14  15  26  29  33  34 0
 6-311+G(2d,p)
 ****
 36  38  39  40  41 0
 6-311+G(2d,p)
 ****
 1  2  3  4  5  16  17  18  19  20  21  22  23  24  25 0
 3-21G
 ****
 27  28  30  31  32  35  37  42  43  44  45  46  47 0
 3-21G
 ****
 48  49 0
 3-21G
 ****


