%nproc=1
%NoSave
%Mem=1900MB
#P OB98/GEN NMR

erre ene a

0 1
  C      288.137     224.907     157.406
  O      289.328     224.151     157.653
  P      290.713     224.959     157.729
  C      291.277     224.188     160.170
  O      291.616     224.165     158.789
  C      291.549     222.819     160.797
  O      290.527     221.868     160.413
  C      292.866     222.192     160.371
  O      293.972     222.814     161.009
  C      292.637     220.739     160.769
  O      292.867     220.566     162.179
  C      291.136     220.558     160.458
  N      290.897     219.816     159.221
  C      290.654     218.454     159.372
  O      290.659     217.886     160.462
  N      290.418     217.759     158.215
  C      290.436     218.276     156.955
  O      290.213     217.604     155.953
  C      290.752     219.709     156.856
  C      290.963     220.406     157.977
  O      290.257     226.279     158.505
  O      291.329     225.189     156.391
  H      289.570     226.111     159.171
  H      292.784     219.609     162.356
  H      290.229     216.772     158.303
  H      290.798     220.150     155.868
  H      291.200     221.464     157.925
  H      290.640     220.021     161.274
  H      293.302     220.049     160.244
  H      292.981     222.263     159.282
  H      291.520     222.935     161.888
  H      290.222     224.433     160.290
  H      291.858     224.973     160.661
  P      295.410     222.624     160.319
  C      295.947     225.164     160.001
  O      296.252     223.949     160.650
  O      295.040     222.775     158.770
  O      296.075     221.334     160.675
  H      294.431     223.511     158.594
  H      296.366     225.989     160.587
  H      294.868     225.311     159.911
  H      296.401     225.171     159.010
  H      287.295     224.248     157.381
  H      288.223     225.411     156.466
  H      288.003     225.627     158.186

 3  4  5  6  7  8  9  10  11  12  13  24  28  29  30  31  32 0
 6-311+G(2d,p)
 ****
 33  34 0
 6-311+G(2d,p)
 ****
 1  2  14  15  16  17  18  19  20  21  22  23  25  26  27 0
 3-21G
 ****
 35  36  37  38  39  40  41  42  43  44  45 0
 3-21G
 ****


