%nproc=1
%NoSave
%Mem=1900MB
#P OB98/GEN NMR

erre ene a

0 1
  C     -158.844      36.720     134.330
  O     -160.172      36.441     133.934
  H     -158.842      36.991     135.389
  H     -158.458      37.562     133.751
  H     -158.204      35.844     134.190
  P     -160.367      35.707     132.519
  C     -160.806      33.339     133.488
  O     -159.937      34.176     132.738
  C     -161.767      32.606     132.559
  O     -161.042      31.708     131.689
  C     -162.811      31.756     133.277
  O     -163.923      32.537     133.693
  C     -163.204      30.795     132.167
  O     -164.088      31.460     131.238
  C     -161.854      30.515     131.494
  N     -161.398      25.464     131.384
  C     -162.301      26.286     130.737
  N     -163.218      25.675     129.957
  N     -162.310      27.589     130.848
  C     -161.351      28.060     131.681
  C     -160.405      27.347     132.384
  C     -160.396      25.910     132.238
  O     -159.611      25.136     132.781
  N     -159.601      28.171     133.127
  C     -160.072      29.379     132.893
  N     -161.138      29.366     132.025
  O     -159.175      36.316     131.639
  O     -161.690      35.926     131.866
  H     -163.811      32.394     131.200
  H     -159.540      36.994     131.040
  H     -161.442      24.465     131.272
  H     -159.678      30.291     133.317
  H     -161.952      30.357     130.414
  H     -163.739      29.917     132.538
  H     -163.282      24.674     129.845
  H     -162.373      31.194     134.113
  H     -163.886      26.258     129.470
  H     -162.253      33.356     131.920
  H     -161.376      33.956     134.191
  H     -160.204      32.616     134.050
  P     -164.745      32.057     134.985
  C     -162.991      33.155     136.552
  O     -163.698      31.973     136.203
  O     -165.057      30.524     134.653
  O     -165.995      32.819     135.264
  H     -166.015      30.406     134.498
  H     -162.336      32.950     137.373
  H     -163.687      33.917     136.834
  H     -162.417      33.489     135.713

 6  7  8  9  10  11  12  13  14  15  26  29  33  34 0
 6-311+G(2d,p)
 ****
 36  38  39  40  41 0
 6-311+G(2d,p)
 ****
 1  2  3  4  5  16  17  18  19  20  21  22  23  24  25 0
 3-21G
 ****
 27  28  30  31  32  35  37  42  43  44  45  46  47 0
 3-21G
 ****
 48  49 0
 3-21G
 ****


