%nproc=1
%NoSave
%Mem=1900MB
#P OB98/GEN NMR

erre ene a

0 1
  C      632.551     535.171     618.862
  O      632.880     536.366     619.543
  H      631.503     534.911     619.049
  H      632.688     535.321     617.789
  H      633.199     534.354     619.194
  P      632.707     536.361     621.139
  C      630.716     536.862     622.737
  O      631.174     536.766     621.396
  C      629.422     537.672     622.772
  O      629.693     539.052     622.402
  C      628.363     537.183     621.801
  O      627.624     536.080     622.305
  C      627.496     538.430     621.669
  O      626.657     538.550     622.832
  C      628.556     539.541     621.634
  N      627.505     542.313     617.461
  C      626.897     542.231     618.664
  N      627.240     541.484     619.735
  C      628.359     540.775     619.465
  C      629.091     540.766     618.293
  C      628.616     541.573     617.249
  N      629.219     541.638     616.012
  N      630.160     539.892     618.391
  C      630.084     539.412     619.618
  N      629.001     539.887     620.307
  O      633.506     537.668     621.609
  O      633.150     535.127     621.842
  H      627.232     538.839     623.574
  H      633.659     537.646     622.575
  H      626.009     542.849     618.793
  H      630.790     538.704     620.060
  H      628.198     540.468     622.123
  H      626.829     538.389     620.802
  H      628.794     536.953     620.812
  H      629.039     537.678     623.805
  H      631.482     537.366     623.337
  H      628.722     542.127     615.283
  H      629.958     540.984     615.792
  H      630.536     535.864     623.137
  P      627.067     535.009     621.246
  C      624.674     534.468     620.345
  O      625.547     535.454     620.909
  O      626.883     533.692     622.128
  O      627.950     534.785     620.065
  H      627.042     532.893     621.593
  H      623.710     534.900     620.176
  H      624.582     533.644     621.022
  H      625.078     534.123     619.416

 6  7  8  9  10  11  12  13  14  15  25  28  32  33  34  35 0
 6-311+G(2d,p)
 ****
 36  39  40 0
 6-311+G(2d,p)
 ****
 1  2  3  4  5  16  17  18  19  20  21  22  23  24 0
 3-21G
 ****
 26  27  29  30  31  37  38  41  42  43  44  45  46  47 0
 3-21G
 ****
 48 0
 3-21G
 ****


