%nproc=1
%NoSave
%Mem=1900MB
#P OB98/GEN NMR

erre ene a

0 1
  C     -183.054    -394.040     645.388
  O     -184.283    -393.805     644.732
  H     -183.244    -394.629     646.289
  H     -182.600    -393.091     645.680
  H     -182.370    -394.599     644.745
  P     -184.268    -393.124     643.284
  C     -185.424    -395.122     642.132
  O     -184.263    -394.313     642.209
  C     -185.261    -396.204     641.058
  O     -184.266    -397.165     641.514
  C     -186.546    -397.000     640.758
  O     -186.478    -397.411     639.385
  C     -186.379    -398.183     641.697
  O     -187.293    -399.217     641.439
  C     -184.892    -398.469     641.472
  N     -184.271    -399.370     642.439
  C     -183.975    -400.665     642.017
  O     -184.190    -401.096     640.886
  N     -183.402    -401.482     642.963
  C     -183.097    -401.132     644.247
  O     -182.557    -401.898     645.034
  C     -183.443    -399.757     644.629
  C     -184.001    -398.948     643.727
  O     -183.230    -392.074     643.072
  O     -185.747    -392.522     643.135
  H     -185.726    -391.559     643.302
  H     -187.168    -399.927     642.102
  H     -183.176    -402.417     642.667
  H     -183.222    -399.454     645.648
  H     -184.257    -397.924     643.981
  H     -184.734    -398.865     640.466
  H     -186.569    -397.870     642.730
  H     -187.460    -396.417     640.921
  H     -184.862    -395.743     640.144
  H     -186.276    -394.477     641.873
  H     -185.609    -395.587     643.107
  P     -187.093    -396.555     638.176
  C     -184.727    -396.334     637.137
  O     -185.911    -395.661     637.546
  O     -188.304    -395.763     638.541
  O     -187.418    -397.615     637.025
  H     -188.138    -397.275     636.458
  H     -184.032    -395.624     636.740
  H     -184.969    -397.055     636.384
  H     -184.290    -396.829     637.978

 6  7  8  9  10  11  12  13  14  15  16  27  31  32  33  34  35 0
 6-311+G(2d,p)
 ****
 36  37 0
 6-311+G(2d,p)
 ****
 1  2  3  4  5  17  18  19  20  21  22  23  24  25 0
 3-21G
 ****
 26  28  29  30  38  39  40  41  42  43  44  45 0
 3-21G
 ****


