%nproc=1
%NoSave
%Mem=1900MB
#P OB98/GEN NMR

erre ene a

0 1
  C        4.780      59.335     -77.224
  O        3.741      60.282     -77.120
  H        5.088      59.267     -78.271
  H        4.417      58.355     -76.902
  H        5.646      59.621     -76.622
  P        3.415      60.911     -75.687
  C        2.596      63.185     -74.780
  O        3.176      62.488     -75.876
  C        2.667      64.699     -74.972
  O        4.006      65.162     -74.698
  C        2.337      65.126     -76.406
  O        0.956      65.319     -76.658
  C        3.106      66.438     -76.528
  O        2.314      67.551     -76.082
  C        4.310      66.232     -75.604
  N        8.348      68.067     -78.148
  C        7.216      68.736     -77.719
  N        7.144      70.044     -78.044
  N        6.250      68.161     -77.052
  C        6.419      66.829     -76.890
  C        7.485      66.055     -77.288
  C        8.585      66.713     -77.960
  O        9.615      66.170     -78.345
  N        7.288      64.729     -76.985
  C        6.069      64.695     -76.486
  N        5.534      65.952     -76.334
  O        4.829      60.866     -74.930
  O        2.367      60.195     -74.891
  H        2.918      68.297     -75.899
  H        4.683      60.746     -73.974
  H        9.070      68.568     -78.631
  H        5.546      63.797     -76.176
  H        4.502      67.122     -74.993
  H        3.370      66.638     -77.570
  H        7.816      70.515     -78.627
  H        2.755      64.417     -77.126
  H        6.251      70.523     -77.915
  H        2.004      65.187     -74.246
  H        3.161      62.894     -73.894
  H        1.561      62.865     -74.631
  P        0.380      65.274     -78.148
  C       -2.028      65.204     -79.190
  O       -1.190      65.004     -78.074
  O        0.966      63.900     -78.720
  O        0.739      66.439     -79.011
  H        1.759      64.064     -79.263
  H       -3.037      64.966     -78.926
  H       -1.711      64.571     -79.992
  H       -1.972      66.227     -79.499

 6  7  8  9  10  11  12  13  14  15  26  29  33  34 0
 6-311+G(2d,p)
 ****
 36  38  39  40  41 0
 6-311+G(2d,p)
 ****
 1  2  3  4  5  16  17  18  19  20  21  22  23  24  25 0
 3-21G
 ****
 27  28  30  31  32  35  37  42  43  44  45  46  47 0
 3-21G
 ****
 48  49 0
 3-21G
 ****


