%nproc=1
%NoSave
%Mem=1900MB
#P OB98/GEN NMR

erre ene a

0 1
  C       98.963     -38.931     138.211
  O       98.357     -40.106     138.712
  H       99.589     -38.498     138.995
  H       98.199     -38.203     137.926
  H       99.589     -39.171     137.347
  P       97.301     -40.836     137.744
  C       95.540     -40.302     139.594
  O       95.884     -40.241     138.217
  C       94.822     -39.021     140.010
  O       95.653     -37.867     139.759
  C       93.520     -38.752     139.258
  O       92.431     -39.532     139.718
  C       93.336     -37.278     139.580
  O       92.884     -37.134     140.940
  C       94.780     -36.759     139.410
  N       95.063     -36.287     138.051
  C       94.846     -34.926     137.802
  O       94.435     -34.181     138.689
  N       95.065     -34.446     136.531
  C       95.487     -35.245     135.599
  N       95.685     -34.710     134.363
  C       95.742     -36.678     135.822
  C       95.513     -37.127     137.054
  O       97.258     -42.334     138.306
  O       97.571     -40.731     136.281
  H       92.882     -36.179     141.133
  H       96.524     -42.836     137.871
  H       96.080     -37.307     135.010
  H       95.679     -38.172     137.293
  H       94.988     -35.942     140.113
  H       92.596     -36.787     138.947
  H       93.652     -38.863     138.175
  H       94.651     -39.072     141.093
  H       95.445     -33.736     134.227
  H       96.461     -40.423     140.174
  H       95.865     -35.274     133.543
  H       94.886     -41.161     139.779
  P       91.825     -40.617     138.702
  C       89.513     -39.420     138.788
  O       90.570     -39.929     137.981
  O       91.149     -41.690     139.678
  O       92.824     -41.246     137.781
  H       91.217     -42.590     139.304
  H       88.757     -38.996     138.160
  H       89.896     -38.666     139.444
  H       89.091     -40.215     139.367

 6  7  8  9  10  11  12  13  14  15  16  26  30  31  32  33  35 0
 6-311+G(2d,p)
 ****
 37  38 0
 6-311+G(2d,p)
 ****
 1  2  3  4  5  17  18  19  20  21  22  23  24  25 0
 3-21G
 ****
 27  28  29  34  36  39  40  41  42  43  44  45  46 0
 3-21G
 ****


