%nproc=1
%NoSave
%Mem=1900MB
#P OB98/GEN NMR

erre ene a

0 1
  C      117.288     -47.307    -242.605
  O      118.088     -47.994    -243.548
  P      117.389     -49.199    -244.355
  C      117.393     -49.974    -246.849
  O      117.848     -49.041    -245.881
  C      117.880     -49.555    -248.237
  O      117.266     -48.310    -248.630
  C      119.387     -49.335    -248.332
  O      120.061     -50.574    -248.495
  C      119.484     -48.416    -249.542
  O      119.413     -49.168    -250.767
  C      118.243     -47.527    -249.369
  N      119.090     -42.577    -249.957
  C      119.037     -43.585    -250.900
  N      119.189     -43.216    -252.190
  N      118.850     -44.847    -250.605
  C      118.728     -45.071    -249.276
  C      118.779     -44.159    -248.246
  C      118.933     -42.764    -248.592
  O      118.888     -41.820    -247.806
  N      118.639     -44.770    -247.027
  C      118.474     -46.043    -247.321
  N      118.498     -46.278    -248.672
  O      115.848     -48.782    -244.363
  O      117.617     -50.560    -243.779
  H      120.194     -49.749    -250.836
  H      115.358     -49.252    -243.665
  H      119.218     -41.621    -250.247
  H      118.312     -46.824    -246.597
  H      117.787     -47.263    -250.329
  H      120.430     -47.869    -249.569
  H      119.359     -42.268    -252.490
  H      119.750     -48.811    -247.439
  H      119.158     -43.942    -252.893
  H      117.563     -50.323    -248.951
  H      116.301     -49.991    -246.843
  H      117.767     -50.971    -246.592
  P      121.322     -50.854    -247.547
  C      122.711     -52.970    -246.958
  O      121.491     -52.444    -247.444
  O      120.798     -50.429    -246.096
  O      122.557     -50.105    -247.921
  H      121.529     -50.026    -245.589
  H      122.510     -53.923    -246.463
  H      123.189     -52.290    -246.244
  H      123.388     -53.139    -247.798
  H      117.867     -46.536    -242.141
  H      116.946     -47.994    -241.859
  H      116.446     -46.872    -243.101

 3  4  5  6  7  8  9  10  11  12  23  26  30  31 0
 6-311+G(2d,p)
 ****
 33  35  36  37  38 0
 6-311+G(2d,p)
 ****
 1  2  13  14  15  16  17  18  19  20  21  22  24  25 0
 3-21G
 ****
 27  28  29  32  34  39  40  41  42  43  44  45  46  47  48  49 0
 3-21G
 ****


