%nproc=1
%NoSave
%Mem=1900MB
#P OB98/GEN NMR

erre ene a

0 1
  C      501.988    -430.615     385.658
  O      501.231    -431.538     386.410
  H      502.337    -431.109     384.749
  H      502.861    -430.296     386.238
  H      501.391    -429.744     385.379
  P      500.361    -431.003     387.646
  C      501.380    -432.518     389.468
  O      500.236    -432.228     388.677
  C      501.317    -433.951     390.012
  O      501.286    -434.881     388.889
  C      502.517    -434.334     390.898
  O      502.045    -435.287     391.865
  C      503.430    -435.011     389.893
  O      504.415    -435.799     390.540
  C      502.409    -435.769     389.041
  N      502.962    -436.186     387.747
  C      503.606    -437.415     387.717
  O      503.758    -438.132     388.715
  N      504.121    -437.795     386.509
  C      504.109    -437.046     385.363
  O      504.616    -437.420     384.312
  C      503.450    -435.732     385.471
  C      502.909    -435.369     386.637
  O      499.066    -430.353     387.293
  O      501.343    -429.999     388.416
  H      505.066    -435.219     390.993
  H      500.828    -429.293     388.853
  H      504.585    -438.689     386.465
  H      503.434    -435.106     384.587
  H      502.415    -434.412     386.744
  H      502.056    -436.673     389.563
  H      503.959    -434.267     389.284
  H      502.982    -433.483     391.393
  H      500.372    -434.083     390.556
  H      501.406    -431.808     390.303
  H      502.286    -432.395     388.866
  P      502.644    -435.354     393.354
  C      502.194    -437.872     393.733
  O      501.907    -436.537     394.159
  O      502.659    -434.042     394.070
  O      504.135    -435.909     393.165
  H      504.706    -435.575     393.889
  H      501.649    -438.565     394.340
  H      503.243    -438.060     393.831
  H      501.905    -437.990     392.710

 6  7  8  9  10  11  12  13  14  15  16  26  31  32  33  34  35 0
 6-311+G(2d,p)
 ****
 36  37 0
 6-311+G(2d,p)
 ****
 1  2  3  4  5  17  18  19  20  21  22  23  24  25 0
 3-21G
 ****
 27  28  29  30  38  39  40  41  42  43  44  45 0
 3-21G
 ****


