%nproc=1
%NoSave
%Mem=1900MB
#P OB98/GEN NMR

erre ene a

0 1
  C     -656.892     -97.519    -521.868
  O     -658.004     -97.608    -522.734
  H     -656.267     -98.404    -522.008
  H     -657.228     -97.493    -520.827
  H     -656.295     -96.632    -522.086
  P     -658.977     -96.341    -522.874
  C     -657.555     -95.388    -524.802
  O     -658.104     -95.156    -523.511
  C     -657.390     -94.063    -525.542
  O     -658.655     -93.367    -525.601
  C     -656.417     -93.095    -524.880
  O     -655.076     -93.485    -525.116
  C     -656.829     -91.787    -525.535
  O     -656.258     -91.669    -526.846
  C     -658.367     -91.952    -525.614
  N     -659.076     -91.262    -524.536
  C     -658.836     -89.897    -524.410
  O     -658.043     -89.289    -525.130
  N     -659.527     -89.256    -523.415
  C     -660.352     -89.856    -522.505
  O     -660.906     -89.243    -521.596
  C     -660.537     -91.303    -522.662
  C     -659.906     -91.931    -523.656
  O     -659.739     -95.969    -521.647
  O     -659.954     -96.751    -524.075
  H     -656.604     -92.418    -527.369
  H     -660.806     -97.060    -523.713
  H     -659.355     -88.271    -523.304
  H     -661.182     -91.810    -521.953
  H     -660.027     -93.001    -523.789
  H     -658.742     -91.562    -526.571
  H     -656.503     -90.913    -524.970
  H     -656.622     -93.028    -523.803
  H     -657.081     -94.282    -526.573
  H     -658.235     -96.040    -525.365
  H     -656.588     -95.891    -524.690
  P     -653.861     -92.583    -524.600
  C     -652.455     -94.225    -523.222
  O     -653.398     -93.160    -523.172
  O     -654.107     -91.111    -524.624
  O     -652.646     -92.983    -525.562
  H     -652.480     -92.263    -526.202
  H     -652.214     -94.535    -522.227
  H     -651.567     -93.892    -523.717
  H     -652.876     -95.049    -523.760

 6  7  8  9  10  11  12  13  14  15  16  26  31  32  33  34  35 0
 6-311+G(2d,p)
 ****
 36  37 0
 6-311+G(2d,p)
 ****
 1  2  3  4  5  17  18  19  20  21  22  23  24  25 0
 3-21G
 ****
 27  28  29  30  38  39  40  41  42  43  44  45 0
 3-21G
 ****


