%nproc=1
%NoSave
%Mem=1900MB
#P OB98/GEN NMR

erre ene a

0 1
  C      561.581     515.365    -199.049
  O      561.284     515.401    -197.666
  H      562.449     514.724    -199.226
  H      560.722     514.954    -199.586
  H      561.780     516.375    -199.421
  P      562.434     515.946    -196.688
  C      562.616     516.547    -194.172
  O      561.776     516.110    -195.231
  C      561.794     517.296    -193.129
  O      561.262     518.503    -193.739
  C      560.610     516.498    -192.544
  O      560.735     516.391    -191.119
  C      559.384     517.344    -192.864
  O      558.433     517.382    -191.796
  C      559.972     518.727    -193.147
  N      556.165     522.109    -193.340
  C      557.055     521.818    -192.361
  N      558.113     520.981    -192.413
  C      558.216     520.437    -193.627
  C      557.411     520.651    -194.729
  C      556.320     521.514    -194.548
  N      555.377     521.763    -195.527
  N      557.831     519.892    -195.811
  C      558.852     519.209    -195.360
  N      559.121     519.481    -194.041
  O      562.648     517.455    -197.179
  O      563.707     515.167    -196.723
  H      557.869     518.161    -191.962
  H      563.601     517.631    -197.290
  H      556.898     522.324    -191.413
  H      559.421     518.466    -195.925
  H      560.113     519.307    -192.227
  H      558.891     516.925    -193.757
  H      560.524     515.495    -192.987
  H      562.462     517.614    -192.320
  H      563.388     517.222    -194.568
  H      554.568     522.312    -195.261
  H      555.422     521.245    -196.380
  H      563.113     515.681    -193.729
  P      561.758     515.285    -190.563
  C      563.064     515.158    -188.317
  O      561.840     515.463    -188.972
  O      563.179     515.816    -191.071
  O      561.476     513.900    -191.046
  H      563.800     515.075    -191.172
  H      562.958     515.327    -187.266
  H      563.841     515.785    -188.702
  H      563.315     514.132    -188.490

 6  7  8  9  10  11  12  13  14  15  25  28  32  33  34  35 0
 6-311+G(2d,p)
 ****
 36  39  40 0
 6-311+G(2d,p)
 ****
 1  2  3  4  5  16  17  18  19  20  21  22  23  24 0
 3-21G
 ****
 26  27  29  30  31  37  38  41  42  43  44  45  46  47  48 0
 3-21G
 ****


