%nproc=1
%NoSave
%Mem=1900MB
#P OB98/GEN NMR

erre ene a

0 1
  C     -382.455    1118.164    -387.796
  O     -381.150    1118.245    -388.341
  H     -382.898    1119.161    -387.780
  H     -382.408    1117.783    -386.768
  H     -383.084    1117.504    -388.406
  P     -380.387    1116.867    -388.608
  C     -380.047    1117.588    -391.112
  O     -379.473    1117.073    -389.913
  C     -379.102    1118.604    -391.753
  O     -378.938    1119.764    -390.906
  C     -377.680    1118.090    -391.939
  O     -377.584    1117.128    -392.962
  C     -376.955    1119.393    -392.238
  O     -377.161    1119.794    -393.603
  C     -377.668    1120.367    -391.268
  N     -376.861    1120.675    -390.092
  C     -375.654    1121.346    -390.342
  O     -375.335    1121.645    -391.494
  N     -374.828    1121.623    -389.278
  C     -375.185    1121.290    -388.081
  N     -374.321    1121.591    -387.073
  C     -376.460    1120.606    -387.774
  C     -377.240    1120.329    -388.819
  O     -381.558    1115.914    -389.146
  O     -379.632    1116.318    -387.445
  H     -378.125    1119.929    -393.709
  H     -382.052    1116.292    -389.891
  H     -376.723    1120.360    -386.756
  H     -378.187    1119.832    -388.677
  H     -377.904    1121.314    -391.776
  H     -375.883    1119.309    -392.094
  H     -377.292    1117.701    -390.987
  H     -379.541    1118.926    -392.699
  H     -373.446    1122.041    -387.329
  H     -381.027    1118.038    -390.914
  H     -374.473    1121.345    -386.105
  H     -380.206    1116.743    -391.789
  P     -376.207    1116.331    -393.202
  C     -376.696    1114.467    -391.496
  O     -376.516    1114.783    -392.868
  O     -375.025    1116.893    -392.490
  O     -376.070    1116.312    -394.794
  H     -376.796    1115.873    -395.263
  H     -376.894    1113.420    -391.394
  H     -377.521    1115.026    -391.107
  H     -375.808    1114.717    -390.953

 6  7  8  9  10  11  12  13  14  15  16  26  30  31  32  33  35 0
 6-311+G(2d,p)
 ****
 37  38 0
 6-311+G(2d,p)
 ****
 1  2  3  4  5  17  18  19  20  21  22  23  24  25 0
 3-21G
 ****
 27  28  29  34  36  39  40  41  42  43  44  45  46 0
 3-21G
 ****


