%nproc=1
%NoSave
%Mem=1900MB
#P OB98/GEN NMR

erre ene a

0 1
  C       57.407     -40.212      -7.570
  O       57.108     -41.560      -7.256
  P       56.213     -41.904      -5.974
  C       56.704     -42.122      -3.428
  O       57.119     -41.627      -4.682
  C       57.894     -42.281      -2.473
  O       58.757     -43.314      -3.008
  C       58.769     -41.041      -2.327
  O       59.552     -41.175      -1.139
  C       59.664     -41.147      -3.541
  O       60.853     -40.375      -3.404
  C       59.877     -42.678      -3.667
  N       59.949     -43.099      -5.077
  C       61.218     -43.210      -5.637
  O       62.252     -43.049      -4.990
  N       61.260     -43.431      -6.986
  C       60.173     -43.498      -7.807
  O       60.230     -43.386      -9.026
  C       58.872     -43.614      -7.130
  C       58.817     -43.385      -5.816
  O       56.109     -43.499      -6.033
  O       54.870     -41.260      -5.955
  H       61.392     -40.535      -4.214
  H       55.276     -43.767      -6.464
  H       62.176     -43.367      -7.414
  H       57.999     -43.818      -7.734
  H       57.863     -43.412      -5.298
  H       60.803     -42.994      -3.172
  H       59.125     -40.770      -4.418
  H       58.213     -40.099      -2.311
  H       57.532     -42.617      -1.495
  H       56.192     -43.077      -3.569
  H       55.973     -41.443      -2.975
  P       59.514     -39.975      -0.077
  C       60.960     -37.912       0.418
  O       60.732     -39.003      -0.451
  O       59.429     -40.375       1.358
  O       58.233     -39.127      -0.535
  H       57.937     -38.556       0.197
  H       62.023     -37.660       0.396
  H       60.673     -38.152       1.446
  H       60.383     -37.050       0.073
  H       58.011     -40.177      -8.453
  H       57.939     -39.766      -6.756
  H       56.497     -39.675      -7.738

 3  4  5  6  7  8  9  10  11  12  13  23  28  29  30  31  32 0
 6-311+G(2d,p)
 ****
 33  34 0
 6-311+G(2d,p)
 ****
 1  2  14  15  16  17  18  19  20  21  22  24  25  26  27 0
 3-21G
 ****
 35  36  37  38  39  40  41  42  43  44  45 0
 3-21G
 ****


