%nproc=1
%NoSave
%Mem=1900MB
#P OB98/GEN NMR

erre ene a

0 1
  C      184.019     119.735    -283.046
  O      184.711     120.289    -284.145
  H      184.256     118.670    -282.981
  H      182.940     119.849    -283.179
  H      184.333     120.225    -282.120
  P      184.406     121.829    -284.482
  C      186.457     123.013    -283.386
  O      185.096     122.623    -283.266
  C      186.549     124.512    -283.649
  O      186.014     124.834    -284.953
  C      185.763     125.376    -282.667
  O      186.409     125.538    -281.416
  C      185.712     126.677    -283.448
  O      186.996     127.324    -283.393
  C      185.409     126.154    -284.868
  N      183.974     126.081    -285.158
  C      183.408     127.186    -285.806
  O      184.097     128.158    -286.106
  N      182.059     127.178    -286.069
  C      181.340     126.152    -285.735
  N      180.011     126.202    -286.019
  C      181.895     124.964    -285.064
  C      183.204     124.994    -284.808
  O      182.846     121.978    -284.156
  O      184.802     122.296    -285.842
  H      186.906     128.164    -283.881
  H      182.584     122.931    -284.189
  H      181.254     124.136    -284.793
  H      183.683     124.156    -284.317
  H      185.886     126.783    -285.629
  H      184.983     127.388    -283.059
  H      184.740     125.005    -282.533
  H      187.612     124.784    -283.655
  H      179.648     127.055    -286.426
  H      186.900     122.456    -284.219
  H      179.347     125.525    -285.667
  H      186.999     122.771    -282.468
  P      185.520     126.074    -280.192
  C      185.498     123.681    -279.165
  O      184.743     124.807    -279.591
  O      184.364     126.907    -280.918
  O      186.262     126.900    -279.188
  H      184.096     127.676    -280.377
  H      184.836     122.928    -278.793
  H      186.173     123.977    -278.390
  H      186.053     123.290    -279.992

 6  7  8  9  10  11  12  13  14  15  16  26  30  31  32  33  35 0
 6-311+G(2d,p)
 ****
 37  38 0
 6-311+G(2d,p)
 ****
 1  2  3  4  5  17  18  19  20  21  22  23  24  25 0
 3-21G
 ****
 27  28  29  34  36  39  40  41  42  43  44  45  46 0
 3-21G
 ****


