%nproc=1
%NoSave
%Mem=1900MB
#P OB98/GEN NMR

erre ene a

0 1
  C       -9.517     316.684    -364.059
  O       -9.220     317.235    -365.323
  H       -9.657     317.502    -363.346
  H       -8.683     316.058    -363.724
  H      -10.433     316.086    -364.091
  P       -9.322     316.295    -366.616
  C       -7.236     317.469    -367.588
  O       -8.574     317.059    -367.818
  C       -6.697     318.301    -368.759
  O       -6.653     317.474    -369.950
  C       -7.645     319.465    -369.059
  O       -6.959     320.578    -369.629
  C       -8.584     318.882    -370.106
  O       -9.231     319.877    -370.897
  C       -7.624     317.981    -370.883
  N      -11.060     316.523    -374.355
  C      -10.776     317.785    -373.883
  N      -11.522     318.795    -374.389
  N       -9.859     318.042    -372.985
  C       -9.243     316.925    -372.516
  C       -9.450     315.619    -372.886
  C      -10.445     315.354    -373.907
  O      -10.752     314.251    -374.353
  N       -8.658     314.758    -372.173
  C       -7.970     315.542    -371.367
  N       -8.283     316.871    -371.549
  O      -10.865     316.402    -367.045
  O       -8.907     314.867    -366.418
  H       -9.773     319.418    -371.554
  H      -11.131     315.616    -367.548
  H      -11.763     316.383    -375.062
  H       -7.232     315.209    -370.650
  H       -7.093     318.556    -371.653
  H       -9.366     318.324    -369.582
  H      -12.353     318.632    -374.946
  H       -8.184     319.796    -368.172
  H      -11.534     319.666    -373.859
  H       -5.675     318.623    -368.558
  H       -6.638     316.558    -367.461
  H       -7.167     318.032    -366.654
  P       -6.805     321.889    -368.719
  C       -7.601     323.743    -370.398
  O       -6.531     323.132    -369.696
  O       -5.403     321.667    -367.972
  O       -7.923     322.098    -367.760
  H       -5.561     321.427    -367.036
  H       -7.223     324.548    -370.994
  H       -8.316     324.122    -369.698
  H       -8.071     323.020    -371.032

 6  7  8  9  10  11  12  13  14  15  26  29  33  34 0
 6-311+G(2d,p)
 ****
 36  38  39  40  41 0
 6-311+G(2d,p)
 ****
 1  2  3  4  5  16  17  18  19  20  21  22  23  24  25 0
 3-21G
 ****
 27  28  30  31  32  35  37  42  43  44  45  46  47 0
 3-21G
 ****
 48  49 0
 3-21G
 ****


