%nproc=1
%NoSave
%Mem=1900MB
#P OB98/GEN NMR

erre ene a

0 1
  C     -417.527    -559.498     394.298
  O     -418.021    -559.682     392.987
  H     -418.040    -558.641     394.745
  H     -416.455    -559.284     394.255
  H     -417.704    -560.380     394.921
  P     -417.792    -561.094     392.268
  C     -416.056    -560.612     390.421
  O     -417.431    -560.808     390.731
  C     -415.850    -560.215     388.954
  O     -416.431    -561.216     388.090
  C     -416.547    -558.894     388.600
  O     -415.806    -557.729     388.904
  C     -416.752    -559.049     387.099
  O     -415.577    -558.632     386.380
  C     -416.972    -560.554     386.932
  N     -421.243    -560.022     384.165
  C     -420.020    -559.397     384.006
  N     -419.941    -558.468     383.026
  N     -418.977    -559.642     384.759
  C     -419.233    -560.529     385.761
  C     -420.404    -561.200     386.028
  C     -421.532    -560.957     385.154
  O     -422.643    -561.475     385.250
  N     -420.272    -562.010     387.124
  C     -419.060    -561.774     387.567
  N     -418.379    -560.895     386.756
  O     -419.268    -561.715     392.169
  O     -416.861    -562.031     392.983
  H     -415.395    -557.700     386.601
  H     -419.220    -562.688     392.142
  H     -422.001    -559.810     383.536
  H     -418.616    -562.233     388.452
  H     -416.440    -560.946     386.058
  H     -417.581    -558.429     386.740
  H     -420.743    -558.160     382.499
  H     -417.533    -558.852     389.076
  H     -419.163    -557.817     383.057
  H     -414.783    -560.187     388.733
  H     -415.549    -561.551     390.629
  H     -415.622    -559.853     391.078
  P     -416.434    -556.624     389.883
  C     -415.574    -554.651     388.411
  O     -415.573    -555.276     389.674
  O     -415.979    -557.140     391.326
  O     -417.903    -556.451     389.786
  H     -416.698    -557.647     391.744
  H     -414.958    -553.777     388.445
  H     -416.574    -554.372     388.152
  H     -415.191    -555.329     387.677

 6  7  8  9  10  11  12  13  14  15  26  29  33  34 0
 6-311+G(2d,p)
 ****
 36  38  39  40  41 0
 6-311+G(2d,p)
 ****
 1  2  3  4  5  16  17  18  19  20  21  22  23  24  25 0
 3-21G
 ****
 27  28  30  31  32  35  37  42  43  44  45  46  47 0
 3-21G
 ****
 48  49 0
 3-21G
 ****


