%nproc=1
%NoSave
%Mem=1900MB
#P OB98/GEN NMR

erre ene a

0 1
  C      -12.914      25.095       7.609
  O      -12.634      23.718       7.471
  H      -12.600      25.608       6.696
  H      -12.365      25.519       8.454
  H      -13.987      25.253       7.744
  P      -12.898      22.758       8.730
  C      -15.102      21.935       9.815
  O      -14.464      22.942       9.046
  C      -16.341      22.502      10.504
  O      -15.978      23.288      11.658
  C      -17.179      23.443       9.644
  O      -17.939      22.774       8.652
  C      -18.050      24.075      10.716
  O      -19.076      23.147      11.112
  C      -17.022      24.282      11.855
  N      -16.451      25.627      11.870
  C      -16.903      26.490      12.876
  O      -17.740      26.113      13.694
  N      -16.424      27.777      12.909
  C      -15.582      28.174      12.006
  N      -15.175      29.473      12.057
  C      -15.066      27.295      10.940
  C      -15.540      26.051      10.927
  O      -11.984      22.935       9.900
  O      -12.866      21.280       8.117
  H      -19.570      22.908      10.308
  H      -13.013      20.646       8.860
  H      -14.371      27.679      10.208
  H      -15.221      25.350      10.164
  H      -17.477      24.081      12.831
  H      -18.550      24.989      10.384
  H      -16.554      24.223       9.196
  H      -16.934      21.654      10.868
  H      -15.582      30.057      12.775
  H      -14.383      21.559      10.548
  H      -14.755      29.925      11.251
  H      -15.415      21.110       9.169
  P      -18.508      23.644       7.427
  C      -17.379      25.243       5.707
  O      -17.336      24.651       6.995
  O      -19.582      24.593       8.134
  O      -19.090      22.862       6.292
  H      -20.478      24.207       8.087
  H      -16.531      25.882       5.580
  H      -18.276      25.817       5.608
  H      -17.362      24.476       4.961

 6  7  8  9  10  11  12  13  14  15  16  26  30  31  32  33  35 0
 6-311+G(2d,p)
 ****
 37  38 0
 6-311+G(2d,p)
 ****
 1  2  3  4  5  17  18  19  20  21  22  23  24  25 0
 3-21G
 ****
 27  28  29  34  36  39  40  41  42  43  44  45  46 0
 3-21G
 ****


