%nproc=1
%NoSave
%Mem=1900MB
#P OB98/GEN NMR

erre ene a

0 1
  C      -59.794     -68.956      -2.026
  O      -59.291     -69.498      -3.244
  P      -57.716     -69.757      -3.374
  C      -56.584     -71.158      -1.435
  O      -57.327     -71.116      -2.633
  C      -56.403     -72.622      -1.002
  O      -57.668     -73.181      -0.587
  C      -55.862     -73.517      -2.113
  O      -54.447     -73.498      -2.170
  C      -56.435     -74.868      -1.734
  O      -55.673     -75.451      -0.661
  C      -57.846     -74.470      -1.241
  N      -58.925     -74.345      -2.244
  C      -59.116     -75.355      -3.185
  O      -58.435     -76.374      -3.253
  N      -60.148     -75.167      -4.066
  C      -61.095     -74.189      -4.003
  O      -62.033     -74.104      -4.784
  C      -60.936     -73.233      -2.902
  C      -59.875     -73.344      -2.098
  O      -57.068     -68.622      -2.455
  O      -57.196     -69.707      -4.777
  H      -56.069     -76.319      -0.465
  H      -56.542     -68.005      -2.998
  H      -60.257     -75.852      -4.798
  H      -61.691     -72.467      -2.784
  H      -59.748     -72.639      -1.280
  H      -58.203     -75.176      -0.481
  H      -56.376     -75.569      -2.563
  H      -56.294     -73.228      -3.076
  H      -55.724     -72.646      -0.141
  H      -57.085     -70.595      -0.645
  H      -55.608     -70.686      -1.591
  P      -53.708     -72.806      -3.409
  C      -53.741     -70.414      -4.335
  O      -53.875     -71.225      -3.184
  O      -54.086     -73.309      -4.761
  O      -52.153     -73.037      -3.095
  H      -51.816     -73.831      -3.569
  H      -54.032     -69.392      -4.079
  H      -54.389     -70.777      -5.137
  H      -52.700     -70.413      -4.670
  H      -60.856     -68.843      -2.097
  H      -59.345     -68.001      -1.848
  H      -59.559     -69.616      -1.218

 3  4  5  6  7  8  9  10  11  12  13  23  28  29  30  31  32 0
 6-311+G(2d,p)
 ****
 33  34 0
 6-311+G(2d,p)
 ****
 1  2  14  15  16  17  18  19  20  21  22  24  25  26  27 0
 3-21G
 ****
 35  36  37  38  39  40  41  42  43  44  45 0
 3-21G
 ****


