%nproc=1
%NoSave
%Mem=1900MB
#P OB98/GEN NMR

erre ene a

0 1
  C      -84.668      33.538    1001.632
  O      -83.282      33.539    1002.029
  P      -82.243      32.415    1001.548
  C      -80.080      32.508    1000.128
  O      -80.837      33.118    1001.188
  C      -79.157      33.515     999.441
  O      -79.893      34.391     998.546
  C      -78.437      34.472    1000.401
  O      -77.348      33.804    1001.051
  C      -78.023      35.589     999.444
  O      -76.804      35.241     998.746
  C      -79.218      35.638     998.480
  N      -80.114      36.764     998.768
  C      -79.791      37.992     998.204
  O      -78.732      38.106     997.546
  N      -80.619      39.073     998.433
  C      -81.658      38.928     999.208
  N      -82.464      40.026     999.380
  C      -81.994      37.660     999.902
  C      -81.196      36.646     999.632
  O      -82.772      31.517    1000.478
  O      -81.896      31.581    1002.879
  H      -76.738      35.832     997.965
  H      -81.684      30.672    1002.628
  H      -82.854      37.603    1000.561
  H      -81.372      35.674    1000.096
  H      -78.868      35.736     997.438
  H      -77.827      36.528     999.969
  H      -79.153      34.867    1001.144
  H      -78.426      32.966     998.828
  H      -82.201      40.869     998.879
  H      -80.790      32.103     999.380
  H      -83.292      40.031     999.967
  H      -79.506      31.682    1000.546
  P      -77.412      33.575    1002.638
  C      -76.045      32.269    1004.399
  O      -76.172      32.640    1003.041
  O      -78.730      33.128    1003.181
  O      -76.974      34.989    1003.265
  H      -77.430      35.119    1004.120
  H      -75.462      31.361    1004.482
  H      -77.043      32.112    1004.859
  H      -75.550      33.079    1004.959
  H      -85.165      34.378    1002.071
  H      -85.134      32.634    1001.964
  H      -84.734      33.602    1000.566

 3  4  5  6  7  8  9  10  11  12  13  23  27  28  29  30  32 0
 6-311+G(2d,p)
 ****
 34  35 0
 6-311+G(2d,p)
 ****
 1  2  14  15  16  17  18  19  20  21  22  24  25  26 0
 3-21G
 ****
 31  33  36  37  38  39  40  41  42  43  44  45  46 0
 3-21G
 ****


