%nproc=1
%NoSave
%Mem=1900MB
#P OB98/GEN NMR

erre ene a

0 1
  C      293.545     -81.573      73.557
  O      293.141     -81.750      72.210
  P      292.619     -83.171      71.693
  C      294.913     -83.657      70.665
  O      293.895     -84.131      71.540
  C      295.578     -84.810      69.911
  O      296.404     -85.567      70.840
  C      294.604     -85.799      69.258
  O      295.225     -86.258      68.049
  C      294.548     -86.935      70.267
  O      294.096     -88.158      69.698
  C      295.997     -86.950      70.735
  N      296.606     -91.448      73.092
  C      296.417     -91.133      71.793
  N      296.237     -89.913      71.246
  C      296.268     -88.960      72.194
  C      296.418     -89.130      73.563
  C      296.611     -90.449      74.010
  N      296.841     -90.787      75.327
  N      296.338     -87.911      74.212
  C      296.142     -87.027      73.256
  N      296.159     -87.606      72.016
  O      291.727     -83.125      70.497
  O      291.852     -83.786      72.961
  H      294.827     -88.543      69.176
  H      290.887     -83.744      72.815
  H      296.419     -91.969      71.097
  H      295.982     -85.968      73.401
  H      296.661     -87.445      70.017
  H      293.865     -86.667      71.085
  H      293.616     -85.373      69.048
  H      296.252     -84.380      69.159
  H      295.665     -83.140      71.270
  H      297.099     -91.743      75.518
  H      297.112     -90.057      75.980
  H      294.486     -82.941      69.955
  P      294.414     -86.224      66.669
  C      293.579     -88.644      66.762
  O      293.212     -87.276      66.819
  O      295.242     -86.369      65.437
  O      293.661     -84.809      66.712
  H      293.368     -84.567      65.813
  H      293.700     -88.943      65.720
  H      292.786     -89.243      67.213
  H      294.512     -88.824      67.302
  H      293.859     -80.561      73.705
  H      294.358     -82.234      73.775
  H      292.724     -81.791      74.207

 3  4  5  6  7  8  9  10  11  12  22  25  29  30  31  32 0
 6-311+G(2d,p)
 ****
 33  36  37 0
 6-311+G(2d,p)
 ****
 1  2  13  14  15  16  17  18  19  20  21  23  24  26 0
 3-21G
 ****
 27  28  34  35  38  39  40  41  42  43  44  45  46  47  48 0
 3-21G
 ****


