%nproc=1
%NoSave
%Mem=1900MB
#P OB98/GEN NMR

erre ene a

0 1
  C     -522.470    -197.535     519.416
  O     -522.980    -197.540     520.754
  P     -522.170    -198.396     521.846
  C     -522.816    -200.921     521.592
  O     -521.961    -199.855     521.201
  C     -522.226    -202.274     521.172
  O     -520.901    -202.437     521.770
  C     -523.073    -203.493     521.580
  O     -522.960    -204.446     520.514
  C     -522.365    -203.997     522.827
  O     -522.661    -205.371     523.079
  C     -520.901    -203.706     522.451
  N     -520.014    -203.690     523.614
  C     -519.213    -204.809     523.817
  O     -519.274    -205.809     523.107
  N     -518.366    -204.749     524.889
  C     -518.294    -203.742     525.799
  O     -517.512    -203.742     526.743
  C     -519.254    -202.635     525.604
  C     -520.049    -202.664     524.546
  O     -523.286    -198.615     522.971
  O     -520.922    -197.714     522.312
  H     -524.182    -198.745     522.612
  H     -523.528    -205.430     523.540
  H     -517.740    -205.534     525.029
  H     -519.263    -201.838     526.345
  H     -520.780    -201.870     524.379
  H     -520.522    -204.458     521.747
  H     -522.669    -203.413     523.692
  H     -524.126    -203.238     521.747
  H     -522.095    -202.257     520.082
  H     -523.801    -200.807     521.117
  H     -522.978    -200.879     522.685
  P     -524.221    -204.633     519.529
  C     -525.989    -205.473     521.281
  O     -525.540    -204.448     520.420
  O     -524.167    -206.227     519.310
  O     -524.152    -203.868     518.250
  H     -524.056    -206.719     520.132
  H     -526.741    -205.069     521.958
  H     -525.158    -205.870     521.878
  H     -526.434    -206.293     520.695
  H     -523.100    -196.931     518.797
  H     -522.451    -198.536     519.038
  H     -521.478    -197.134     519.414

 3  4  5  6  7  8  9  10  11  12  13  24  28  29  30  31  32 0
 6-311+G(2d,p)
 ****
 33  34 0
 6-311+G(2d,p)
 ****
 1  2  14  15  16  17  18  19  20  21  22  23  25  26  27 0
 3-21G
 ****
 35  36  37  38  39  40  41  42  43  44  45 0
 3-21G
 ****


