%nproc=1
%NoSave
%Mem=1900MB
#P OB98/GEN NMR

erre ene a

0 1
  C      948.720    1534.099    -890.530
  O      947.727    1534.823    -891.220
  H      948.234    1533.341    -889.910
  H      949.283    1534.774    -889.890
  H      949.395    1533.605    -891.230
  P      948.230    1535.984    -892.220
  C      947.498    1534.376    -894.150
  O      948.505    1535.248    -893.620
  C      947.981    1533.798    -895.490
  O      947.832    1534.775    -896.530
  C      949.456    1533.317    -895.450
  O      949.551    1532.054    -896.130
  C      950.175    1534.400    -896.240
  O      951.370    1533.922    -896.840
  C      949.070    1534.874    -897.220
  N      949.316    1536.255    -897.670
  C      950.036    1536.406    -898.880
  O      950.437    1535.411    -899.510
  N      950.323    1537.681    -899.330
  C      949.963    1538.700    -898.620
  N      950.295    1539.921    -899.110
  C      949.250    1538.570    -897.330
  C      948.956    1537.353    -896.920
  O      949.676    1536.338    -891.680
  O      947.310    1537.171    -892.330
  H      951.120    1533.396    -897.620
  H      950.029    1537.178    -892.060
  H      948.983    1539.469    -896.750
  H      948.458    1537.149    -895.990
  H      949.055    1534.216    -898.110
  H      950.446    1535.229    -895.560
  H      949.847    1533.233    -894.470
  H      947.299    1532.956    -895.750
  H      950.786    1539.964    -900.000
  H      946.583    1534.964    -894.310
  H      950.094    1540.800    -898.610
  H      947.305    1533.580    -893.430
  P      949.275    1530.772    -895.200
  C      947.622    1529.489    -896.770
  O      947.791    1530.230    -895.560
  O      949.098    1531.401    -893.740
  O      950.333    1529.766    -895.260
  H      949.915    1531.317    -893.240
  H      946.597    1529.200    -896.871
  H      948.238    1528.614    -896.742
  H      947.905    1530.097    -897.603

 6  7  8  9  10  11  12  13  14  15  16  26  30  31  32  33  35 0
 6-311+G(2d,p)
 ****
 37  38 0
 6-311+G(2d,p)
 ****
 1  2  3  4  5  17  18  19  20  21  22  23  24  25 0
 3-21G
 ****
 27  28  29  34  36  39  40  41  42  43  44  45  46 0
 3-21G
 ****


