%nproc=1
%NoSave
%Mem=1900MB
#P OB98/GEN NMR

erre ene a

0 1
  C     -889.080    -792.569     -31.619
  O     -890.450    -792.955     -31.703
  P     -891.550    -791.771     -31.600
  C     -893.050    -792.815     -29.711
  O     -892.900    -792.473     -31.094
  C     -894.520    -793.110     -29.406
  O     -895.320    -791.890     -29.501
  C     -895.190    -794.105     -30.370
  O     -894.750    -795.423     -30.090
  C     -896.650    -793.840     -30.088
  O     -897.070    -794.522     -28.895
  C     -896.670    -792.307     -29.855
  N     -897.180    -791.563     -31.006
  C     -898.550    -791.291     -30.991
  O     -899.290    -791.681     -30.092
  N     -899.020    -790.588     -32.059
  C     -898.290    -790.148     -33.123
  O     -898.760    -789.484     -34.029
  C     -896.850    -790.491     -33.105
  C     -896.360    -791.182     -32.061
  O     -891.810    -791.477     -33.140
  O     -891.090    -790.620     -30.790
  H     -891.770    -792.254     -33.708
  H     -896.330    -794.447     -28.250
  H     -900.000    -790.374     -32.063
  H     -896.250    -790.168     -33.933
  H     -895.320    -791.431     -32.030
  H     -897.290    -792.064     -28.997
  H     -897.310    -794.180     -30.902
  H     -894.930    -793.835     -31.399
  H     -894.590    -793.476     -28.370
  H     -892.690    -791.995     -29.088
  H     -892.430    -793.689     -29.494
  P     -893.370    -795.900     -30.752
  C     -894.490    -797.408     -32.581
  O     -893.640    -797.332     -31.440
  O     -892.490    -796.230     -29.472
  O     -892.760    -794.877     -31.663
  H     -892.980    -796.759     -28.792
  H     -894.270    -798.366     -33.074
  H     -894.280    -796.601     -33.288
  H     -895.520    -797.412     -32.286
  H     -888.459    -793.437     -31.700
  H     -888.902    -792.089     -30.679
  H     -888.851    -791.891     -32.415

 3  4  5  6  7  8  9  10  11  12  13  24  28  29  30  31  32 0
 6-311+G(2d,p)
 ****
 33  34 0
 6-311+G(2d,p)
 ****
 1  2  14  15  16  17  18  19  20  21  22  23  25  26  27 0
 3-21G
 ****
 35  36  37  38  39  40  41  42  43  44  45 0
 3-21G
 ****


