%nproc=1
%NoSave
%Mem=1900MB
#P OB98/GEN NMR

erre ene a

0 1
  C     -136.629       9.965     416.411
  O     -137.790      10.584     416.933
  H     -136.556       8.956     416.824
  H     -135.737      10.530     416.699
  H     -136.699       9.895     415.322
  P     -138.065      12.098     416.475
  C     -138.136      12.750     418.982
  O     -137.549      12.986     417.707
  C     -137.070      12.764     420.072
  O     -136.054      11.783     419.792
  C     -136.347      14.096     420.228
  O     -137.103      14.982     421.034
  C     -135.070      13.655     420.929
  O     -135.325      13.495     422.338
  C     -134.786      12.285     420.288
  N     -130.211      10.607     418.672
  C     -130.803      10.564     419.884
  N     -131.994      11.077     420.256
  C     -132.601      11.683     419.219
  C     -132.115      11.808     417.924
  C     -130.861      11.230     417.661
  N     -130.257      11.279     416.421
  N     -133.008      12.497     417.128
  C     -134.036      12.726     417.916
  N     -133.827      12.286     419.197
  O     -139.446      12.385     415.985
  O     -136.904      12.303     415.392
  H     -135.658      14.350     422.666
  H     -136.075      11.893     415.696
  H     -130.243      10.052     420.660
  H     -134.969      13.189     417.604
  H     -134.415      11.562     421.029
  H     -134.266      14.384     420.832
  H     -136.089      14.535     419.253
  H     -137.549      12.473     421.018
  H     -138.656      11.781     418.984
  H     -129.288      11.014     416.374
  H     -130.686      11.853     415.710
  H     -138.875      13.539     419.159
  P     -137.586      16.406     420.478
  C     -135.946      17.576     422.079
  O     -136.341      17.390     420.725
  O     -138.894      16.870     421.016
  O     -137.595      16.224     418.892
  H     -138.119      16.941     418.475
  H     -135.113      18.247     422.119
  H     -135.666      16.634     422.501
  H     -136.762      17.988     422.635

 6  7  8  9  10  11  12  13  14  15  25  28  32  33  34  35 0
 6-311+G(2d,p)
 ****
 36  39  40 0
 6-311+G(2d,p)
 ****
 1  2  3  4  5  16  17  18  19  20  21  22  23  24 0
 3-21G
 ****
 26  27  29  30  31  37  38  41  42  43  44  45  46  47 0
 3-21G
 ****
 48 0
 3-21G
 ****


