%nproc=1
%NoSave
%Mem=1900MB
#P OB98/GEN NMR

erre ene a

0 1
  C     -324.416     331.050     805.106
  O     -325.061     331.793     806.113
  H     -325.161     330.458     804.568
  H     -323.687     330.364     805.554
  H     -323.910     331.715     804.394
  P     -324.171     332.859     806.931
  C     -325.929     334.635     807.655
  O     -325.139     333.514     808.035
  C     -326.998     334.929     808.705
  O     -327.979     333.858     808.681
  C     -326.441     335.013     810.127
  O     -327.154     336.059     810.833
  C     -326.798     333.671     810.746
  O     -326.897     333.722     812.172
  C     -328.106     333.335     810.015
  N     -328.353     331.888     810.020
  C     -329.568     331.463     810.567
  O     -330.365     332.284     811.034
  N     -329.823     330.109     810.630
  C     -328.911     329.262     810.261
  N     -329.220     327.939     810.375
  C     -327.594     329.677     809.735
  C     -327.387     330.989     809.627
  O     -323.955     334.045     805.880
  O     -322.890     332.329     807.478
  H     -326.002     333.885     812.536
  H     -323.091     334.482     806.019
  H     -326.854     328.935     809.457
  H     -326.445     331.385     809.268
  H     -328.952     333.842     810.498
  H     -326.013     332.938     810.490
  H     -325.367     335.226     810.163
  H     -327.520     335.853     808.424
  H     -330.135     327.701     810.756
  H     -326.421     334.409     806.693
  H     -328.570     327.196     810.156
  H     -325.281     335.507     807.509
  P     -326.255     337.097     811.669
  C     -326.150     339.135     810.047
  O     -326.699     338.580     811.236
  O     -324.797     336.933     811.015
  O     -326.234     336.838     813.142
  H     -324.204     336.477     811.634
  H     -326.542     340.120     809.899
  H     -326.410     338.518     809.212
  H     -325.085     339.185     810.135

 6  7  8  9  10  11  12  13  14  15  16  26  30  31  32  33  35 0
 6-311+G(2d,p)
 ****
 37  38 0
 6-311+G(2d,p)
 ****
 1  2  3  4  5  17  18  19  20  21  22  23  24  25 0
 3-21G
 ****
 27  28  29  34  36  39  40  41  42  43  44  45  46 0
 3-21G
 ****


