%nproc=1
%NoSave
%Mem=1900MB
#P OB98/GEN NMR

erre ene a

0 1
  C     -217.008     764.728    -899.295
  O     -217.202     763.356    -899.585
  P     -218.186     762.473    -898.685
  C     -218.609     762.529    -896.135
  O     -217.643     762.629    -897.165
  C     -218.064     763.088    -894.815
  O     -217.787     764.504    -894.945
  C     -219.017     762.959    -893.635
  O     -219.005     761.624    -893.145
  C     -218.435     763.985    -892.675
  O     -217.328     763.455    -891.935
  C     -217.977     765.100    -893.645
  N     -218.898     766.229    -893.685
  C     -219.037     766.949    -892.485
  O     -218.433     766.604    -891.465
  N     -219.932     768.011    -892.455
  C     -220.607     768.309    -893.535
  N     -221.445     769.380    -893.425
  C     -220.501     767.557    -894.785
  C     -219.643     766.537    -894.805
  O     -218.389     761.072    -899.145
  O     -219.546     763.333    -898.665
  H     -216.591     763.351    -892.575
  H     -220.019     763.271    -899.525
  H     -221.095     767.836    -895.645
  H     -219.509     765.931    -895.685
  H     -216.988     765.473    -893.345
  H     -219.177     764.330    -891.945
  H     -220.034     763.251    -893.955
  H     -217.110     762.575    -894.605
  H     -221.506     769.835    -892.545
  H     -218.877     761.478    -895.995
  H     -222.059     769.669    -894.185
  H     -219.519     763.082    -896.445
  P     -220.103     761.154    -892.085
  C     -221.039     761.995    -889.845
  O     -220.149     762.238    -890.905
  O     -220.027     759.723    -891.655
  O     -221.505     761.431    -892.855
  H     -222.102     760.656    -892.725
  H     -220.732     762.584    -888.975
  H     -221.034     760.939    -889.565
  H     -222.060     762.286    -890.145
  H     -216.321     765.148    -900.000
  H     -216.612     764.831    -898.306
  H     -217.944     765.242    -899.360

 3  4  5  6  7  8  9  10  11  12  13  23  27  28  29  30  32 0
 6-311+G(2d,p)
 ****
 34  35 0
 6-311+G(2d,p)
 ****
 1  2  14  15  16  17  18  19  20  21  22  24  25  26 0
 3-21G
 ****
 31  33  36  37  38  39  40  41  42  43  44  45  46 0
 3-21G
 ****


