%nproc=1
%NoSave
%Mem=1900MB
#P OB98/GEN NMR

erre ene a

0 1
  C     -415.987     399.700    -385.166
  O     -415.625     401.061    -385.279
  H     -415.097     399.081    -385.350
  H     -416.753     399.442    -385.904
  H     -416.358     399.489    -384.160
  P     -416.820     402.127    -385.148
  C     -418.810     402.673    -386.738
  O     -417.788     401.763    -386.374
  C     -419.590     402.126    -387.936
  O     -418.738     402.034    -389.099
  C     -420.142     400.718    -387.729
  O     -421.326     400.697    -386.945
  C     -420.414     400.319    -389.167
  O     -421.609     400.969    -389.634
  C     -419.162     400.886    -389.873
  N     -418.074     399.907    -389.990
  C     -418.314     398.779    -390.775
  O     -419.401     398.623    -391.328
  N     -417.325     397.826    -390.892
  C     -416.191     397.988    -390.282
  N     -415.261     397.010    -390.419
  C     -415.885     399.174    -389.458
  C     -416.851     400.078    -389.358
  O     -416.151     403.501    -385.631
  O     -417.475     402.201    -383.811
  H     -422.348     400.616    -389.096
  H     -416.842     404.206    -385.705
  H     -414.925     399.267    -388.962
  H     -416.707     400.977    -388.759
  H     -419.408     401.234    -390.883
  H     -420.562     399.243    -389.294
  H     -419.384     400.046    -387.315
  H     -420.391     402.839    -388.176
  H     -415.512     396.179    -390.941
  H     -418.350     403.629    -387.002
  H     -414.427     396.963    -389.845
  H     -419.496     402.825    -385.902
  P     -421.765     399.294    -386.302
  C     -423.247     397.295    -387.059
  O     -422.583     398.498    -387.431
  O     -422.917     399.716    -385.266
  O     -420.669     398.530    -385.635
  H     -422.852     399.194    -384.444
  H     -423.744     396.883    -387.912
  H     -423.966     397.506    -386.295
  H     -422.530     396.591    -386.690

 6  7  8  9  10  11  12  13  14  15  16  26  30  31  32  33  35 0
 6-311+G(2d,p)
 ****
 37  38 0
 6-311+G(2d,p)
 ****
 1  2  3  4  5  17  18  19  20  21  22  23  24  25 0
 3-21G
 ****
 27  28  29  34  36  39  40  41  42  43  44  45  46 0
 3-21G
 ****


