%nproc=1
%NoSave
%Mem=1900MB
#P OB98/GEN NMR

erre ene a

0 1
  C     -417.585     886.690    -706.673
  O     -417.912     885.705    -707.622
  H     -418.454     886.876    -706.033
  H     -417.325     887.625    -707.186
  H     -416.742     886.371    -706.049
  P     -416.703     884.998    -708.404
  C     -416.994     882.699    -707.228
  O     -416.160     883.830    -707.442
  C     -416.309     881.689    -706.303
  O     -415.848     882.405    -705.114
  C     -417.215     880.531    -705.835
  O     -416.431     879.346    -705.752
  C     -417.594     880.966    -704.426
  O     -417.983     879.844    -703.621
  C     -416.308     881.641    -703.976
  N     -416.068     881.681    -698.951
  C     -415.593     880.757    -699.870
  N     -415.021     879.640    -699.376
  N     -415.689     880.923    -701.159
  C     -416.274     882.089    -701.517
  C     -416.796     883.074    -700.722
  C     -416.699     882.889    -699.284
  O     -417.116     883.644    -698.430
  N     -417.347     884.079    -701.470
  C     -417.189     883.691    -702.733
  N     -416.539     882.476    -702.818
  O     -415.548     886.111    -708.339
  O     -416.996     884.584    -709.812
  H     -418.066     880.148    -702.696
  H     -415.562     886.647    -709.161
  H     -416.000     881.503    -697.959
  H     -417.542     884.216    -703.616
  H     -415.523     880.927    -703.700
  H     -418.431     881.672    -704.463
  H     -414.886     879.462    -698.392
  H     -418.081     880.365    -706.493
  H     -414.626     878.979    -700.036
  H     -415.413     881.308    -706.804
  H     -417.199     882.217    -708.199
  H     -417.949     883.027    -706.802
  P     -416.261     878.450    -707.089
  C     -413.709     879.029    -707.239
  O     -414.977     878.995    -707.888
  O     -417.497     878.913    -707.986
  O     -416.281     876.980    -706.833
  H     -417.812     878.171    -708.518
  H     -412.974     879.417    -707.913
  H     -413.434     878.039    -706.942
  H     -413.767     879.657    -706.375

 6  7  8  9  10  11  12  13  14  15  26  29  33  34 0
 6-311+G(2d,p)
 ****
 36  38  39  40  41 0
 6-311+G(2d,p)
 ****
 1  2  3  4  5  16  17  18  19  20  21  22  23  24  25 0
 3-21G
 ****
 27  28  30  31  32  35  37  42  43  44  45  46  47 0
 3-21G
 ****
 48  49 0
 3-21G
 ****


