%nproc=1
%NoSave
%Mem=1900MB
#P OB98/GEN NMR

erre ene a

0 1
  C     -285.876     167.389     223.303
  O     -285.491     167.205     221.936
  P     -285.892     168.255     220.789
  C     -283.678     168.108     219.486
  O     -285.095     167.940     219.424
  C     -282.994     167.923     218.126
  O     -283.087     166.540     217.682
  C     -283.558     168.788     216.987
  O     -282.456     169.061     216.119
  C     -284.538     167.839     216.323
  O     -284.896     168.230     214.999
  C     -283.772     166.528     216.413
  N     -286.706     163.760     213.249
  C     -285.822     164.749     213.013
  N     -285.049     165.416     213.900
  C     -285.221     164.934     215.144
  C     -286.078     163.911     215.536
  C     -286.854     163.323     214.523
  N     -287.794     162.342     214.765
  N     -286.010     163.716     216.904
  C     -285.134     164.601     217.329
  N     -284.622     165.360     216.300
  O     -285.817     169.689     221.223
  O     -287.411     167.880     220.421
  H     -284.102     168.142     214.435
  H     -287.941     168.698     220.375
  H     -285.726     165.058     211.974
  H     -284.843     164.762     218.365
  H     -283.007     166.464     215.622
  H     -285.467     167.806     216.918
  H     -284.021     169.717     217.338
  H     -281.922     168.130     218.271
  H     -283.274     167.385     220.203
  H     -288.368     162.038     213.980
  H     -288.012     162.091     215.718
  H     -283.460     169.113     219.876
  P     -281.986     170.567     215.796
  C     -279.524     170.149     216.385
  O     -280.446     170.482     215.356
  O     -282.274     171.561     216.878
  O     -282.735     170.943     214.434
  H     -282.757     171.910     214.329
  H     -279.357     171.018     217.023
  H     -278.581     169.846     215.927
  H     -279.900     169.316     216.995
  H     -285.505     166.575     223.891
  H     -286.943     167.421     223.372
  H     -285.467     168.308     223.668

 3  4  5  6  7  8  9  10  11  12  22  25  29  30  31  32 0
 6-311+G(2d,p)
 ****
 33  36  37 0
 6-311+G(2d,p)
 ****
 1  2  13  14  15  16  17  18  19  20  21  23  24  26 0
 3-21G
 ****
 27  28  34  35  38  39  40  41  42  43  44  45  46  47  48 0
 3-21G
 ****


