%nproc=1
%NoSave
%Mem=1900MB
#P OB98/GEN NMR

erre ene a

0 1
  C     -172.101     -26.255     -29.881
  O     -172.529     -24.910     -29.751
  P     -173.207     -24.215     -31.029
  C     -175.492     -23.420     -29.997
  O     -174.789     -24.346     -30.809
  C     -175.751     -24.023     -28.614
  O     -174.507     -24.150     -27.893
  C     -176.655     -23.187     -27.718
  O     -178.021     -23.316     -28.078
  C     -176.305     -23.743     -26.343
  O     -177.005     -24.978     -26.111
  C     -174.792     -24.009     -26.485
  N     -173.965     -22.968     -25.879
  C     -173.125     -23.374     -24.847
  O     -173.060     -24.535     -24.449
  N     -172.368     -22.387     -24.271
  C     -172.416     -21.058     -24.574
  O     -171.749     -20.211     -23.997
  C     -173.347     -20.685     -25.650
  C     -174.066     -21.640     -26.243
  O     -172.862     -25.288     -32.164
  O     -172.699     -22.837     -31.285
  H     -172.758     -26.184     -31.795
  H     -177.931     -24.826     -26.385
  H     -171.734     -22.661     -23.536
  H     -173.419     -19.637     -25.913
  H     -174.764     -21.382     -27.031
  H     -174.531     -24.969     -26.024
  H     -176.570     -23.059     -25.530
  H     -176.360     -22.132     -27.771
  H     -176.169     -25.028     -28.751
  H     -176.446     -23.180     -30.475
  H     -174.903     -22.502     -29.911
  P     -178.775     -21.968     -28.533
  C     -180.718     -23.008     -29.938
  O     -179.495     -22.307     -29.923
  O     -177.535     -21.043     -28.943
  O     -179.657     -21.389     -27.476
  H     -176.855     -21.523     -29.444
  H     -181.212     -22.830     -30.896
  H     -181.379     -22.675     -29.133
  H     -180.527     -24.078     -29.833
  H     -171.672     -26.584     -28.957
  H     -171.369     -26.323     -30.658
  H     -172.939     -26.874     -30.125

 3  4  5  6  7  8  9  10  11  12  13  24  28  29  30  31  32 0
 6-311+G(2d,p)
 ****
 33  34 0
 6-311+G(2d,p)
 ****
 1  2  14  15  16  17  18  19  20  21  22  23  25  26  27 0
 3-21G
 ****
 35  36  37  38  39  40  41  42  43  44  45 0
 3-21G
 ****


