%nproc=1
%NoSave
%Mem=1900MB
#P OB98/GEN NMR

erre ene a

0 1
  C     -222.190      58.504      23.790
  O     -221.207      59.223      24.516
  P     -221.153      59.018      26.111
  C     -222.612      59.953      28.059
  O     -222.541      59.577      26.693
  C     -224.036      59.787      28.589
  O     -224.313      58.368      28.739
  C     -224.302      60.444      29.948
  O     -225.672      60.869      29.949
  C     -224.125      59.297      30.927
  O     -224.774      59.530      32.174
  C     -224.704      58.142      30.111
  N     -225.760      53.974      32.780
  C     -226.496      55.136      32.625
  N     -227.709      55.159      33.216
  N     -226.080      56.176      31.948
  C     -224.854      55.996      31.399
  C     -224.015      54.908      31.511
  C     -224.504      53.754      32.231
  O     -223.924      52.673      32.321
  N     -222.814      55.137      30.890
  C     -222.960      56.320      30.332
  N     -224.196      56.863      30.570
  O     -220.083      60.111      26.572
  O     -220.805      57.639      26.577
  H     -224.825      58.676      32.650
  H     -219.187      59.721      26.642
  H     -226.142      53.197      33.293
  H     -222.214      56.832      29.742
  H     -225.795      58.100      30.157
  H     -223.056      59.143      31.127
  H     -228.103      54.384      33.727
  H     -223.643      61.288      30.162
  H     -228.281      55.990      33.089
  H     -224.737      60.176      27.833
  H     -222.327      61.006      28.153
  H     -221.907      59.350      28.644
  P     -225.987      62.382      30.382
  C     -226.867      63.548      32.519
  O     -226.309      62.382      31.948
  O     -227.422      62.652      29.714
  O     -224.989      63.387      29.911
  H     -227.493      63.589      29.461
  H     -227.385      63.270      33.446
  H     -227.590      64.020      31.844
  H     -226.072      64.259      32.756
  H     -222.107      58.738      22.749
  H     -223.163      58.777      24.140
  H     -222.042      57.454      23.932

 3  4  5  6  7  8  9  10  11  12  23  26  30  31 0
 6-311+G(2d,p)
 ****
 33  35  36  37  38 0
 6-311+G(2d,p)
 ****
 1  2  13  14  15  16  17  18  19  20  21  22  24  25 0
 3-21G
 ****
 27  28  29  32  34  39  40  41  42  43  44  45  46  47  48  49 0
 3-21G
 ****


