%nproc=1
%NoSave
%Mem=1900MB
#P OB98/GEN NMR

erre ene a

0 1
  C      373.306     189.681    -207.589
  O      373.655     189.834    -206.228
  H      372.869     188.688    -207.728
  H      374.189     189.766    -208.226
  H      372.563     190.431    -207.877
  P      374.423     191.168    -205.783
  C      376.571     189.934    -205.042
  O      375.470     190.738    -204.649
  C      376.762     188.759    -204.076
  O      375.760     187.745    -204.364
  C      378.138     188.082    -204.188
  O      378.464     187.558    -202.893
  C      377.843     186.959    -205.163
  O      378.871     186.001    -205.175
  C      376.464     186.519    -204.667
  N      375.753     185.706    -205.639
  C      375.048     184.609    -205.134
  O      375.062     184.367    -203.926
  N      374.375     183.797    -206.007
  C      374.452     184.020    -207.282
  N      373.772     183.171    -208.097
  C      375.233     185.132    -207.863
  C      375.848     185.931    -206.993
  O      373.555     192.329    -205.428
  O      375.364     191.506    -207.035
  H      378.600     185.203    -205.682
  H      374.991     192.258    -207.534
  H      375.281     185.263    -208.933
  H      376.446     186.775    -207.324
  H      376.549     185.951    -203.730
  H      377.769     187.348    -206.183
  H      378.923     188.765    -204.527
  H      376.575     189.110    -203.053
  H      373.259     182.415    -207.655
  H      377.461     190.569    -205.040
  H      373.775     183.230    -209.105
  H      376.415     189.551    -206.058
  P      379.913     187.713    -202.227
  C      380.663     185.538    -201.058
  O      379.997     186.789    -200.919
  O      380.329     189.131    -201.999
  O      380.917     186.997    -203.252
  H      381.787     187.439    -203.204
  H      380.651     185.021    -200.121
  H      381.676     185.705    -201.360
  H      380.163     184.948    -201.797

 6  7  8  9  10  11  12  13  14  15  16  26  30  31  32  33  35 0
 6-311+G(2d,p)
 ****
 37  38 0
 6-311+G(2d,p)
 ****
 1  2  3  4  5  17  18  19  20  21  22  23  24  25 0
 3-21G
 ****
 27  28  29  34  36  39  40  41  42  43  44  45  46 0
 3-21G
 ****


