%nproc=1
%NoSave
%Mem=1900MB
#P OB98/GEN NMR

erre ene a

0 1
  C      -54.252     283.132     374.698
  O      -55.168     283.575     373.689
  P      -55.379     285.153     373.504
  C      -57.208     285.436     375.335
  O      -55.899     285.767     374.892
  C      -57.438     285.952     376.758
  O      -56.644     285.232     377.724
  C      -57.070     287.416     376.945
  O      -58.111     288.276     376.505
  C      -56.926     287.493     378.457
  O      -58.229     287.596     379.067
  C      -56.289     286.140     378.793
  N      -52.281     285.119     381.814
  C      -53.613     284.989     382.007
  N      -54.619     285.299     381.162
  C      -54.135     285.776     380.006
  C      -52.807     285.967     379.665
  C      -51.851     285.615     380.631
  N      -50.496     285.749     380.427
  N      -52.697     286.490     378.393
  C      -53.939     286.599     377.966
  N      -54.844     286.188     378.909
  O      -56.670     285.236     372.561
  O      -54.210     285.853     372.895
  H      -58.676     288.358     378.653
  H      -56.594     286.004     371.964
  H      -53.910     284.580     382.969
  H      -54.230     286.961     376.990
  H      -56.676     285.718     379.728
  H      -56.354     288.367     378.782
  H      -56.112     287.645     376.463
  H      -58.498     285.805     377.005
  H      -57.352     284.352     375.302
  H      -49.869     285.449     381.156
  H      -50.168     286.098     379.538
  H      -57.937     285.865     374.640
  P      -57.904     289.020     375.100
  C      -56.313     290.855     376.019
  O      -56.467     289.723     375.188
  O      -58.940     290.238     375.182
  O      -58.143     288.160     373.906
  H      -59.258     290.468     374.288
  H      -55.246     291.014     376.200
  H      -56.813     290.712     376.980
  H      -56.721     291.738     375.519
  H      -54.217     282.063     374.703
  H      -54.578     283.483     375.655
  H      -53.277     283.520     374.490

 3  4  5  6  7  8  9  10  11  12  22  25  29  30  31  32 0
 6-311+G(2d,p)
 ****
 33  36  37 0
 6-311+G(2d,p)
 ****
 1  2  13  14  15  16  17  18  19  20  21  23  24  26 0
 3-21G
 ****
 27  28  34  35  38  39  40  41  42  43  44  45  46  47  48 0
 3-21G
 ****


