%nproc=1
%NoSave
%Mem=1900MB
#P OB98/GEN NMR

erre ene a

0 1
  C     -895.310     402.759     436.147
  O     -894.560     403.812     435.578
  P     -895.340     404.822     434.605
  C     -893.270     406.231     433.895
  O     -894.500     406.192     434.590
  C     -892.990     407.645     433.379
  O     -894.050     408.062     432.509
  C     -892.910     408.704     434.478
  O     -891.680     408.634     435.173
  C     -893.110     409.966     433.641
  O     -891.880     410.325     432.988
  C     -894.160     409.506     432.607
  N     -897.720     413.175     432.372
  C     -896.450     413.126     431.941
  N     -895.550     412.128     432.051
  C     -896.090     411.086     432.695
  C     -897.380     410.984     433.211
  C     -898.210     412.097     433.044
  N     -899.520     412.132     433.482
  N     -897.560     409.755     433.817
  C     -896.420     409.130     433.669
  N     -895.510     409.875     432.974
  O     -896.660     405.197     435.430
  O     -895.670     404.263     433.244
  H     -892.080     411.051     432.366
  H     -897.420     405.336     434.828
  H     -896.100     414.032     431.418
  H     -896.220     408.131     434.031
  H     -893.960     409.925     431.607
  H     -893.420     410.826     434.242
  H     -893.750     408.592     435.178
  H     -892.060     407.621     432.809
  H     -893.300     405.541     433.034
  H     -900.000     413.022     433.438
  H     -899.830     411.389     434.088
  H     -892.470     405.891     434.560
  P     -891.730     408.225     436.715
  C     -890.650     410.537     437.018
  O     -890.620     409.170     437.402
  O     -891.020     406.790     436.705
  O     -893.090     408.266     437.333
  H     -890.180     406.820     436.211
  H     -889.890     411.079     437.592
  H     -891.630     410.985     437.235
  H     -890.420     410.628     435.952
  H     -894.675     402.165     436.770
  H     -895.717     402.149     435.368
  H     -896.107     403.165     436.735

 3  4  5  6  7  8  9  10  11  12  22  25  29  30  31  32 0
 6-311+G(2d,p)
 ****
 33  36  37 0
 6-311+G(2d,p)
 ****
 1  2  13  14  15  16  17  18  19  20  21  23  24  26 0
 3-21G
 ****
 27  28  34  35  38  39  40  41  42  43  44  45  46  47  48 0
 3-21G
 ****


