%nproc=1
%NoSave
%Mem=1900MB
#P OB98/GEN NMR

erre ene a

0 1
  C     -101.603     241.968     -98.648
  O     -100.843     242.958     -99.356
  P     -101.558     243.738    -100.559
  C     -103.210     245.659     -99.959
  O     -101.859     245.241    -100.089
  C     -103.294     247.183     -99.845
  O     -102.550     247.678     -98.714
  C     -102.729     247.920    -101.052
  O     -103.672     247.984    -102.113
  C     -102.494     249.304    -100.470
  O     -103.737     250.034    -100.429
  C     -102.022     248.982     -99.048
  N      -97.958     251.371     -97.041
  C      -99.275     251.672     -97.039
  N     -100.294     250.998     -97.608
  C      -99.844     249.894     -98.224
  C      -98.534     249.455     -98.314
  C      -97.559     250.246     -97.685
  N      -96.220     249.932     -97.691
  N      -98.457     248.282     -99.035
  C      -99.704     248.007     -99.363
  N     -100.578     248.956     -98.904
  O     -103.014     243.071    -100.608
  O     -100.853     243.607    -101.868
  H     -103.922     250.333    -101.341
  H     -103.330     243.033    -101.529
  H      -99.548     252.581     -96.504
  H     -100.021     247.139     -99.925
  H     -102.409     249.695     -98.308
  H     -101.797     249.898    -101.066
  H     -101.776     247.478    -101.371
  H     -104.350     247.456     -99.711
  H     -103.664     245.191     -99.080
  H      -95.583     250.532     -97.195
  H      -95.920     249.084     -98.150
  H     -103.779     245.299    -100.825
  P     -103.647     246.793    -103.189
  C     -104.755     244.446    -103.319
  O     -104.552     245.627    -102.568
  O     -102.153     246.234    -103.070
  O     -103.981     247.216    -104.579
  H     -101.861     245.871    -103.931
  H     -105.119     243.663    -102.649
  H     -103.824     244.109    -103.782
  H     -105.507     244.629    -104.093
  H     -100.997     241.536     -97.879
  H     -101.914     241.203     -99.329
  H     -102.464     242.426     -98.209

 3  4  5  6  7  8  9  10  11  12  22  25  29  30  31  32 0
 6-311+G(2d,p)
 ****
 33  36  37 0
 6-311+G(2d,p)
 ****
 1  2  13  14  15  16  17  18  19  20  21  23  24  26 0
 3-21G
 ****
 27  28  34  35  38  39  40  41  42  43  44  45  46  47  48 0
 3-21G
 ****


