%nproc=1
%NoSave
%Mem=1900MB
#P OB98/GEN NMR

erre ene a

0 1
  C     -489.488    1160.696     749.283
  O     -490.689    1161.455     749.031
  P     -491.915    1160.892     748.154
  C     -492.485    1163.386     747.806
  O     -492.983    1162.071     747.988
  C     -493.603    1164.425     747.978
  O     -494.708    1164.130     747.081
  C     -494.235    1164.474     749.348
  O     -493.403    1165.067     750.322
  C     -495.522    1165.259     749.066
  O     -495.294    1166.673     749.086
  C     -495.870    1164.797     747.617
  N     -497.035    1163.948     747.553
  C     -498.100    1164.402     746.782
  O     -498.073    1165.523     746.269
  N     -499.209    1163.585     746.633
  C     -499.263    1162.468     747.266
  N     -500.370    1161.698     747.062
  C     -498.227    1162.010     748.199
  C     -497.139    1162.783     748.289
  O     -492.491    1159.612     748.674
  O     -491.321    1160.684     746.688
  H     -491.840    1159.990     746.218
  H     -494.427    1166.823     748.639
  H     -498.327    1161.078     748.748
  H     -496.315    1162.514     748.944
  H     -496.010    1165.672     746.979
  H     -496.306    1165.043     749.789
  H     -494.502    1163.445     749.657
  H     -493.180    1165.409     747.714
  H     -501.062    1162.045     746.412
  H     -492.076    1163.461     746.794
  H     -500.504    1160.791     747.495
  H     -491.667    1163.568     748.515
  P     -493.119    1164.222     751.658
  C     -493.049    1166.176     753.367
  O     -492.330    1165.182     752.681
  O     -492.022    1163.151     751.220
  O     -494.337    1163.563     752.242
  H     -492.222    1162.285     751.638
  H     -492.545    1166.383     754.331
  H     -494.074    1165.866     753.594
  H     -493.083    1167.098     752.783
  H     -488.820    1161.275     749.887
  H     -489.014    1160.459     748.353
  H     -489.739    1159.791     749.796

 3  4  5  6  7  8  9  10  11  12  13  24  27  28  29  30  32 0
 6-311+G(2d,p)
 ****
 34  35 0
 6-311+G(2d,p)
 ****
 1  2  14  15  16  17  18  19  20  21  22  23  25  26 0
 3-21G
 ****
 31  33  36  37  38  39  40  41  42  43  44  45  46 0
 3-21G
 ****


