%nproc=1
%NoSave
%Mem=1900MB
#P OB98/GEN NMR

erre ene a

0 1
  C       14.344     -77.441     257.554
  O       15.075     -78.674     257.528
  P       14.558     -79.947     258.361
  C       16.485     -79.996     260.037
  O       15.827     -80.709     258.996
  C       17.876     -80.559     260.380
  O       17.876     -82.013     260.311
  C       19.015     -80.070     259.475
  O       20.180     -80.002     260.300
  C       19.124     -81.202     258.458
  O       20.379     -81.184     257.768
  C       18.873     -82.418     259.350
  N       18.454     -83.581     258.581
  C       19.419     -84.232     257.807
  O       20.564     -83.772     257.744
  N       19.056     -85.336     257.085
  C       17.824     -85.713     257.053
  N       17.516     -86.811     256.299
  C       16.737     -85.015     257.799
  C       17.125     -83.980     258.541
  O       13.609     -80.840     257.618
  O       13.836     -79.296     259.645
  H       21.085     -81.311     258.427
  H       13.119     -79.885     259.937
  H       15.714     -85.360     257.726
  H       16.418     -83.411     259.118
  H       19.777     -82.690     259.907
  H       18.329     -81.101     257.712
  H       18.809     -79.098     259.013
  H       18.093     -80.300     261.428
  H       18.281     -87.244     255.782
  H       15.855     -80.026     260.939
  H       16.575     -87.122     256.126
  H       16.581     -78.938     259.758
  P       20.813     -78.614     260.777
  C       22.799     -78.857     259.180
  O       22.388     -78.710     260.521
  O       20.432     -78.185     262.162
  O       20.323     -77.545     259.685
  H       20.420     -76.646     260.044
  H       23.877     -78.697     259.110
  H       22.292     -78.134     258.532
  H       22.561     -79.874     258.827
  H       14.842     -76.718     256.943
  H       14.289     -77.080     258.560
  H       13.355     -77.605     257.179

 3  4  5  6  7  8  9  10  11  12  13  23  27  28  29  30  32 0
 6-311+G(2d,p)
 ****
 34  35 0
 6-311+G(2d,p)
 ****
 1  2  14  15  16  17  18  19  20  21  22  24  25  26 0
 3-21G
 ****
 31  33  36  37  38  39  40  41  42  43  44  45  46 0
 3-21G
 ****


