%nproc=1
%NoSave
%Mem=1900MB
#P OB98/GEN NMR

erre ene a

0 1
  C     -119.462    -686.451    -755.975
  O     -118.239    -685.756    -756.060
  H     -119.964    -686.164    -755.045
  H     -119.282    -687.531    -755.957
  H     -120.107    -686.192    -756.820
  P     -117.329    -686.054    -757.355
  C     -117.101    -683.502    -757.780
  O     -117.477    -684.771    -758.307
  C     -118.346    -682.659    -757.493
  O     -119.063    -683.173    -756.335
  C     -118.055    -681.190    -757.215
  O     -117.906    -680.458    -758.418
  C     -119.303    -680.779    -756.432
  O     -120.409    -680.507    -757.317
  C     -119.575    -682.039    -755.583
  N     -119.816    -679.895    -751.020
  C     -120.643    -679.737    -752.118
  N     -121.637    -678.840    -752.006
  N     -120.485    -680.393    -753.239
  C     -119.424    -681.245    -753.222
  C     -118.549    -681.493    -752.186
  C     -118.749    -680.771    -750.946
  O     -118.101    -680.919    -749.914
  N     -117.599    -682.426    -752.542
  C     -117.890    -682.711    -753.799
  N     -118.966    -682.003    -754.263
  O     -118.156    -687.188    -758.130
  O     -115.932    -686.494    -757.069
  H     -120.293    -679.646    -757.733
  H     -117.531    -687.760    -758.614
  H     -120.004    -679.373    -750.177
  H     -117.339    -683.416    -754.419
  H     -120.653    -682.203    -755.439
  H     -119.131    -679.877    -755.844
  H     -121.604    -678.092    -751.329
  H     -117.166    -681.083    -756.561
  H     -122.234    -678.702    -752.818
  H     -119.016    -682.756    -758.361
  H     -116.468    -682.985    -758.498
  H     -116.530    -683.661    -756.854
  P     -116.774    -679.309    -758.441
  C     -115.422    -680.285    -760.443
  O     -115.461    -679.994    -759.049
  O     -116.400    -679.098    -756.897
  O     -117.201    -678.032    -759.103
  H     -115.940    -678.252    -756.774
  H     -114.483    -680.737    -760.687
  H     -115.537    -679.379    -761.000
  H     -116.217    -680.958    -760.689

 6  7  8  9  10  11  12  13  14  15  26  29  33  34 0
 6-311+G(2d,p)
 ****
 36  38  39  40  41 0
 6-311+G(2d,p)
 ****
 1  2  3  4  5  16  17  18  19  20  21  22  23  24  25 0
 3-21G
 ****
 27  28  30  31  32  35  37  42  43  44  45  46  47 0
 3-21G
 ****
 48  49 0
 3-21G
 ****


