%nproc=1
%NoSave
%Mem=1900MB
#P OB98/GEN NMR

erre ene a

0 1
  C       91.841     -25.851    -381.608
  O       91.939     -24.955    -382.701
  P       90.622     -24.277    -383.316
  C       90.328     -26.055    -385.149
  O       89.745     -25.429    -384.011
  C       89.448     -27.208    -385.627
  O       89.363     -28.248    -384.616
  C       88.006     -26.822    -385.911
  O       87.886     -26.074    -387.107
  C       87.336     -28.185    -385.938
  O       87.532     -28.831    -387.205
  C       88.109     -28.936    -384.830
  N       87.340     -29.040    -383.595
  C       86.863     -30.314    -383.275
  O       87.016     -31.255    -384.061
  N       86.205     -30.488    -382.083
  C       85.941     -29.460    -381.333
  N       85.344     -29.700    -380.136
  C       86.297     -28.075    -381.713
  C       87.008     -27.941    -382.833
  O       90.862     -23.076    -384.162
  O       89.744     -23.901    -382.022
  H       89.467     -22.966    -382.098
  H       87.176     -29.731    -387.121
  H       85.995     -27.247    -381.087
  H       87.332     -26.966    -383.181
  H       88.374     -29.943    -385.169
  H       86.258     -28.122    -385.772
  H       87.611     -26.236    -385.074
  H       89.915     -27.645    -386.526
  H       85.134     -30.668    -379.903
  H       91.314     -26.431    -384.875
  H       85.393     -29.047    -379.361
  H       90.452     -25.315    -385.946
  P       86.682     -25.014    -387.185
  C       85.016     -26.682    -388.261
  O       85.309     -25.842    -387.161
  O       86.767     -24.460    -388.684
  O       86.768     -23.898    -386.187
  H       86.540     -23.510    -388.696
  H       84.271     -27.410    -387.952
  H       85.910     -27.211    -388.610
  H       84.612     -26.079    -389.077
  H       92.818     -26.196    -381.341
  H       91.231     -26.685    -381.884
  H       91.400     -25.348    -380.773

 3  4  5  6  7  8  9  10  11  12  13  24  27  28  29  30  32 0
 6-311+G(2d,p)
 ****
 34  35 0
 6-311+G(2d,p)
 ****
 1  2  14  15  16  17  18  19  20  21  22  23  25  26 0
 3-21G
 ****
 31  33  36  37  38  39  40  41  42  43  44  45  46 0
 3-21G
 ****


