%nproc=1
%NoSave
%Mem=1900MB
#P OB98/GEN NMR

erre ene a

0 1
  C      424.686     128.731     -94.352
  O      425.774     128.268     -93.547
  P      426.554     126.954     -94.040
  C      424.781     125.138     -93.498
  O      425.479     125.859     -94.506
  C      423.718     124.212     -94.110
  O      423.129     123.361     -93.083
  C      422.560     124.962     -94.778
  O      422.064     124.156     -95.849
  C      421.516     125.012     -93.680
  O      420.211     125.277     -94.197
  C      421.708     123.627     -93.056
  N      417.584     124.135     -90.193
  C      417.753     124.321     -91.553
  N      416.652     124.661     -92.258
  N      418.900     124.188     -92.168
  C      419.907     123.806     -91.338
  C      419.864     123.601     -89.980
  C      418.600     123.778     -89.310
  O      418.391     123.637     -88.107
  N      421.100     123.251     -89.489
  C      421.887     123.254     -90.549
  N      421.201     123.555     -91.700
  O      427.140     126.351     -92.676
  O      427.650     127.236     -95.016
  H      419.587     125.228     -93.442
  H      428.103     126.484     -92.642
  H      416.680     124.261     -89.772
  H      422.943     123.053     -90.542
  H      421.204     122.840     -93.629
  H      421.770     125.800     -92.959
  H      415.732     124.732     -91.856
  H      422.822     125.958     -95.162
  H      416.742     124.764     -93.262
  H      424.204     123.556     -94.837
  H      424.303     125.835     -92.803
  H      425.505     124.576     -92.898
  P      422.537     124.542     -97.332
  C      420.292     123.973     -98.518
  O      421.212     124.980     -98.123
  O      422.916     123.130     -97.987
  O      423.666     125.513     -97.390
  H      423.563     123.258     -98.706
  H      419.432     123.991     -97.841
  H      420.747     122.976     -98.504
  H      419.952     124.190     -99.533
  H      424.262     129.607     -93.908
  H      423.940     127.967     -94.417
  H      425.043     128.965     -95.333

 3  4  5  6  7  8  9  10  11  12  23  26  30  31 0
 6-311+G(2d,p)
 ****
 33  35  36  37  38 0
 6-311+G(2d,p)
 ****
 1  2  13  14  15  16  17  18  19  20  21  22  24  25 0
 3-21G
 ****
 27  28  29  32  34  39  40  41  42  43  44  45  46  47  48  49 0
 3-21G
 ****


