%nproc=1
%NoSave
%Mem=1900MB
#P OB98/GEN NMR

erre ene a

0 1
  C     -405.849     374.145    -146.098
  O     -405.090     373.357    -145.201
  H     -406.076     375.101    -145.617
  H     -406.791     373.643    -146.344
  H     -405.277     374.336    -147.010
  P     -404.683     371.887    -145.704
  C     -403.251     369.991    -144.702
  O     -403.870     371.256    -144.469
  C     -402.297     369.650    -143.552
  O     -401.095     370.458    -143.695
  C     -402.880     369.930    -142.163
  O     -402.461     368.908    -141.263
  C     -402.247     371.255    -141.767
  O     -402.180     371.427    -140.356
  C     -400.888     371.169    -142.457
  N     -398.088     374.945    -140.466
  C     -398.368     373.694    -140.024
  N     -399.115     372.743    -140.637
  C     -399.549     373.176    -141.830
  C     -399.351     374.418    -142.408
  C     -398.588     375.341    -141.666
  N     -398.316     376.613    -142.089
  N     -399.995     374.496    -143.628
  C     -400.568     373.311    -143.792
  N     -400.337     372.488    -142.720
  O     -403.991     371.827    -147.026
  O     -406.084     371.119    -145.628
  H     -401.634     372.220    -140.173
  H     -406.562     371.328    -144.803
  H     -397.942     373.428    -139.061
  H     -401.161     373.018    -144.652
  H     -400.145     370.612    -141.861
  H     -402.836     372.088    -142.183
  H     -403.972     369.990    -142.174
  H     -401.988     368.603    -143.655
  H     -402.698     370.009    -145.648
  H     -397.744     377.208    -141.504
  H     -398.661     376.925    -142.997
  H     -404.045     369.238    -144.767
  P     -403.579     367.994    -140.561
  C     -404.130     365.470    -140.411
  O     -403.129     366.455    -140.670
  O     -404.989     368.280    -140.948
  O     -403.345     368.301    -139.005
  H     -404.210     368.322    -138.550
  H     -403.705     364.494    -140.516
  H     -404.933     365.586    -141.108
  H     -404.502     365.592    -139.415

 6  7  8  9  10  11  12  13  14  15  25  28  32  33  34  35 0
 6-311+G(2d,p)
 ****
 36  39  40 0
 6-311+G(2d,p)
 ****
 1  2  3  4  5  16  17  18  19  20  21  22  23  24 0
 3-21G
 ****
 26  27  29  30  31  37  38  41  42  43  44  45  46  47 0
 3-21G
 ****
 48 0
 3-21G
 ****


