%nproc=1
%NoSave
%Mem=1900MB
#P OB98/GEN NMR

erre ene a

0 1
  C       18.415    -141.246     -34.712
  O       19.025    -140.106     -35.281
  H       17.845    -141.761     -35.490
  H       17.730    -140.955     -33.912
  H       19.174    -141.931     -34.325
  P       19.871    -139.132     -34.332
  C       17.697    -137.752     -34.151
  O       18.811    -138.303     -33.456
  C       16.463    -137.740     -33.242
  O       16.847    -137.128     -31.986
  C       15.302    -136.930     -33.838
  O       14.079    -137.660     -33.890
  C       15.321    -135.641     -33.024
  O       14.077    -134.978     -32.940
  C       15.899    -136.090     -31.677
  N       16.538    -135.017     -30.920
  C       15.761    -134.354     -29.975
  O       14.589    -134.615     -29.711
  N       16.391    -133.341     -29.298
  C       17.679    -132.935     -29.475
  O       18.190    -132.025     -28.834
  C       18.441    -133.659     -30.502
  C       17.845    -134.651     -31.169
  O       20.902    -138.299     -35.015
  O       20.532    -140.117     -33.257
  H       13.830    -134.693     -33.844
  H       21.470    -140.264     -33.482
  H       15.841    -132.861     -28.603
  H       19.464    -133.356     -30.676
  H       18.379    -135.208     -31.933
  H       15.117    -136.519     -31.050
  H       16.023    -134.946     -33.500
  H       15.496    -136.687     -34.889
  H       16.169    -138.774     -33.031
  H       17.512    -138.370     -35.034
  H       17.932    -136.732     -34.471
  P       13.474    -138.325     -35.208
  C       11.531    -136.601     -35.563
  O       12.732    -137.184     -36.047
  O       12.735    -139.604     -35.004
  O       14.784    -138.655     -36.091
  H       14.581    -139.467     -36.598
  H       11.188    -135.863     -36.257
  H       11.715    -136.140     -34.615
  H       10.785    -137.360     -35.452

 6  7  8  9  10  11  12  13  14  15  16  26  31  32  33  34  35 0
 6-311+G(2d,p)
 ****
 36  37 0
 6-311+G(2d,p)
 ****
 1  2  3  4  5  17  18  19  20  21  22  23  24  25 0
 3-21G
 ****
 27  28  29  30  38  39  40  41  42  43  44  45 0
 3-21G
 ****


