%nproc=1
%NoSave
%Mem=1900MB
#P OB98/GEN NMR

erre ene a

0 1
  C      237.827      69.085    -117.556
  O      237.191      67.826    -117.637
  H      237.671      69.623    -118.496
  H      238.903      68.951    -117.407
  H      237.413      69.683    -116.738
  P      237.035      66.945    -116.305
  C      239.246      65.616    -116.310
  O      238.520      66.697    -115.743
  C      240.347      65.140    -115.354
  O      241.374      66.179    -115.277
  C      239.855      64.875    -113.912
  O      240.658      63.813    -113.377
  C      240.185      66.198    -113.244
  O      240.125      66.107    -111.846
  C      241.552      66.479    -113.877
  N      242.015      67.850    -113.677
  C      242.909      68.079    -112.633
  O      243.337      67.198    -111.892
  N      243.291      69.383    -112.455
  C      242.879      70.454    -113.197
  O      243.275      71.598    -113.008
  C      241.913      70.152    -114.269
  C      241.531      68.884    -114.459
  O      236.192      65.720    -116.433
  O      236.420      67.978    -115.242
  H      235.453      67.856    -115.192
  H      240.857      65.550    -111.506
  H      243.939      69.569    -111.704
  H      241.548      70.979    -114.863
  H      240.820      68.621    -115.238
  H      242.308      65.785    -113.492
  H      239.458      66.963    -113.541
  H      238.797      64.598    -113.868
  H      240.827      64.250    -115.781
  H      239.694      65.961    -117.250
  H      238.557      64.790    -116.526
  P      240.109      62.317    -113.158
  C      238.896      62.412    -110.885
  O      238.754      62.372    -112.294
  O      241.130      61.382    -112.594
  O      239.625      61.821    -114.604
  H      239.814      60.866    -114.695
  H      237.928      62.446    -110.430
  H      239.452      63.283    -110.607
  H      239.415      61.537    -110.554

 6  7  8  9  10  11  12  13  14  15  16  27  31  32  33  34  35 0
 6-311+G(2d,p)
 ****
 36  37 0
 6-311+G(2d,p)
 ****
 1  2  3  4  5  17  18  19  20  21  22  23  24  25 0
 3-21G
 ****
 26  28  29  30  38  39  40  41  42  43  44  45 0
 3-21G
 ****


