%nproc=1
%NoSave
%Mem=1900MB
#P OB98/GEN NMR

erre ene a

0 1
  C      184.487    -450.138    -338.467
  O      183.505    -450.432    -339.472
  P      183.802    -450.217    -341.039
  C      181.881    -448.659    -341.717
  O      182.436    -449.962    -341.843
  C      180.487    -448.526    -342.359
  O      180.595    -448.322    -343.800
  C      179.560    -449.743    -342.162
  O      178.232    -449.210    -342.130
  C      179.790    -450.529    -343.444
  O      178.760    -451.467    -343.717
  C      179.894    -449.394    -344.460
  N      179.724    -449.340    -349.580
  C      178.992    -448.687    -348.648
  N      179.117    -448.722    -347.309
  C      180.157    -449.500    -346.944
  C      181.002    -450.214    -347.775
  C      180.752    -450.123    -349.157
  N      181.463    -450.825    -350.110
  N      181.934    -450.925    -347.043
  C      181.652    -450.650    -345.785
  N      180.581    -449.790    -345.670
  O      184.681    -451.274    -341.642
  O      184.544    -448.798    -341.110
  H      177.896    -451.015    -343.662
  H      185.319    -448.865    -341.694
  H      178.185    -448.066    -349.034
  H      182.157    -451.049    -344.921
  H      178.905    -449.022    -344.739
  H      180.737    -451.091    -343.358
  H      179.778    -450.304    -341.259
  H      180.022    -447.621    -341.951
  H      182.564    -447.941    -342.183
  H      181.145    -450.764    -351.068
  H      182.139    -451.503    -349.810
  H      181.807    -448.409    -340.649
  P      177.407    -449.087    -340.753
  C      175.259    -450.345    -341.386
  O      175.850    -449.074    -341.162
  O      177.836    -447.976    -339.856
  O      177.594    -450.514    -340.050
  H      177.388    -450.440    -339.103
  H      175.560    -450.719    -342.368
  H      174.170    -450.232    -341.371
  H      175.558    -451.064    -340.616
  H      184.083    -450.352    -337.500
  H      184.754    -449.103    -338.521
  H      185.357    -450.740    -338.631

 3  4  5  6  7  8  9  10  11  12  22  25  29  30  31  32 0
 6-311+G(2d,p)
 ****
 33  36  37 0
 6-311+G(2d,p)
 ****
 1  2  13  14  15  16  17  18  19  20  21  23  24  26 0
 3-21G
 ****
 27  28  34  35  38  39  40  41  42  43  44  45  46  47  48 0
 3-21G
 ****


