%nproc=1
%NoSave
%Mem=1900MB
#P OB98/GEN NMR

erre ene a

0 1
  C     -476.713     -78.605     380.164
  O     -475.467     -78.166     379.665
  P     -474.412     -77.434     380.628
  C     -474.380     -75.555     378.860
  O     -474.491     -75.877     380.246
  C     -475.335     -74.422     378.490
  O     -476.708     -74.854     378.613
  C     -475.210     -73.187     379.369
  O     -474.065     -72.428     379.007
  C     -476.537     -72.498     379.100
  O     -476.491     -71.730     377.890
  C     -477.501     -73.699     378.952
  N     -478.301     -73.920     380.151
  C     -479.481     -73.178     380.244
  O     -479.778     -72.361     379.369
  N     -480.275     -73.335     381.360
  C     -479.906     -74.145     382.299
  N     -480.723     -74.251     383.378
  C     -478.659     -74.929     382.251
  C     -477.908     -74.768     381.159
  O     -473.039     -78.029     380.630
  O     -475.127     -77.490     382.060
  H     -476.072     -70.872     378.127
  H     -475.095     -78.398     382.445
  H     -478.383     -75.586     383.065
  H     -476.970     -75.299     381.043
  H     -478.185     -73.535     378.107
  H     -476.816     -71.807     379.905
  H     -475.157     -73.482     380.423
  H     -475.154     -74.157     377.437
  H     -481.561     -73.678     383.384
  H     -474.627     -76.447     378.278
  H     -480.518     -74.825     384.183
  H     -473.343     -75.278     378.635
  P     -472.958     -72.088     380.105
  C     -472.887     -69.641     379.343
  O     -473.054     -70.529     380.436
  O     -471.580     -72.588     379.801
  O     -473.521     -72.778     381.437
  H     -472.791     -73.243     381.888
  H     -473.300     -68.669     379.618
  H     -473.409     -70.007     378.457
  H     -471.825     -69.526     379.126
  H     -477.271     -79.065     379.375
  H     -477.259     -77.768     380.546
  H     -476.553     -79.315     380.949

 3  4  5  6  7  8  9  10  11  12  13  23  27  28  29  30  32 0
 6-311+G(2d,p)
 ****
 34  35 0
 6-311+G(2d,p)
 ****
 1  2  14  15  16  17  18  19  20  21  22  24  25  26 0
 3-21G
 ****
 31  33  36  37  38  39  40  41  42  43  44  45  46 0
 3-21G
 ****


