%nproc=1
%NoSave
%Mem=1900MB
#P OB98/GEN NMR

erre ene a

0 1
  C      113.410     196.644    -241.451
  O      114.101     196.145    -240.322
  H      112.369     196.827    -241.170
  H      113.430     195.922    -242.272
  H      113.855     197.589    -241.776
  P      115.579     195.557    -240.542
  C      116.699     197.359    -239.069
  O      116.406     195.973    -239.228
  C      117.424     197.618    -237.747
  O      116.552     197.322    -236.635
  C      118.648     196.742    -237.536
  O      119.727     197.042    -238.397
  C      118.847     196.811    -236.028
  O      119.615     197.935    -235.610
  C      117.392     196.954    -235.522
  N      116.920     195.739    -234.864
  C      117.256     195.609    -233.521
  O      117.924     196.438    -232.904
  N      116.829     194.464    -232.908
  C      116.161     193.437    -233.510
  O      115.841     192.414    -232.915
  C      115.859     193.618    -234.938
  C      116.246     194.745    -235.544
  O      116.250     195.944    -241.826
  O      115.390     193.979    -240.365
  H      119.474     198.036    -234.648
  H      116.162     193.485    -240.736
  H      117.052     194.357    -231.932
  H      115.332     192.824    -235.449
  H      116.035     194.904    -236.598
  H      117.322     197.775    -234.797
  H      119.353     195.920    -235.651
  H      118.365     195.706    -237.760
  H      117.686     198.682    -237.699
  H      115.748     197.903    -239.069
  H      117.305     197.708    -239.912
  P      119.909     196.380    -239.840
  C      121.210     198.519    -240.528
  O      121.146     197.098    -240.572
  O      118.663     196.124    -240.624
  O      120.535     194.941    -239.452
  H      120.200     194.292    -240.097
  H      122.080     198.853    -241.053
  H      121.262     198.842    -239.509
  H      120.336     198.930    -240.988

 6  7  8  9  10  11  12  13  14  15  16  26  31  32  33  34  35 0
 6-311+G(2d,p)
 ****
 36  37 0
 6-311+G(2d,p)
 ****
 1  2  3  4  5  17  18  19  20  21  22  23  24  25 0
 3-21G
 ****
 27  28  29  30  38  39  40  41  42  43  44  45 0
 3-21G
 ****


