%nproc=1
%NoSave
%Mem=1900MB
#P OB98/GEN NMR

erre ene a

0 1
  C     -348.038    -121.610    -597.941
  O     -348.865    -122.169    -596.922
  P     -348.224    -122.427    -595.476
  C     -348.234    -124.999    -595.232
  O     -348.860    -123.778    -594.867
  C     -349.245    -126.160    -595.180
  O     -350.049    -126.126    -596.394
  C     -348.620    -127.561    -595.142
  O     -348.321    -128.130    -593.864
  C     -349.739    -128.404    -595.737
  O     -350.707    -128.729    -594.722
  C     -350.378    -127.478    -596.767
  N     -351.836    -129.023    -601.437
  C     -352.519    -128.851    -600.281
  N     -352.058    -128.439    -599.081
  C     -350.743    -128.172    -599.144
  C     -349.914    -128.291    -600.250
  C     -350.506    -128.745    -601.437
  N     -349.805    -128.922    -602.612
  N     -348.616    -127.933    -599.924
  C     -348.665    -127.625    -598.642
  N     -349.928    -127.736    -598.133
  O     -348.202    -121.258    -594.552
  O     -346.731    -122.897    -595.839
  H     -350.215    -129.196    -594.015
  H     -346.116    -122.532    -595.172
  H     -353.582    -129.088    -600.328
  H     -347.817    -127.320    -598.052
  H     -351.474    -127.551    -596.784
  H     -349.380    -129.359    -596.141
  H     -347.731    -127.614    -595.781
  H     -349.914    -126.022    -594.328
  H     -347.409    -125.206    -594.542
  H     -350.299    -129.290    -603.407
  H     -348.806    -128.774    -602.619
  H     -347.793    -124.865    -596.219
  P     -346.897    -128.799    -593.565
  C     -347.533    -131.134    -592.578
  O     -347.145    -129.811    -592.338
  O     -345.778    -127.843    -593.364
  O     -346.710    -129.795    -594.806
  H     -347.327    -130.539    -594.817
  H     -347.440    -131.704    -591.648
  H     -346.890    -131.604    -593.337
  H     -348.575    -131.167    -592.905
  H     -348.606    -121.499    -598.841
  H     -347.207    -122.259    -598.122
  H     -347.681    -120.652    -597.625

 3  4  5  6  7  8  9  10  11  12  22  25  29  30  31  32 0
 6-311+G(2d,p)
 ****
 33  36  37 0
 6-311+G(2d,p)
 ****
 1  2  13  14  15  16  17  18  19  20  21  23  24  26 0
 3-21G
 ****
 27  28  34  35  38  39  40  41  42  43  44  45  46  47  48 0
 3-21G
 ****


