%nproc=1
%NoSave
%Mem=1900MB
#P OB98/GEN NMR

erre ene a

0 1
  C      286.471     419.820    1353.239
  O      286.538     421.137    1353.770
  H      285.449     419.641    1352.906
  H      286.733     419.083    1354.003
  H      287.149     419.735    1352.390
  P      287.958     421.599    1354.367
  C      288.181     423.732    1352.922
  O      287.945     423.196    1354.222
  C      287.529     425.123    1352.776
  O      286.108     424.958    1352.526
  C      287.693     425.980    1354.040
  O      287.921     427.350    1353.641
  C      286.331     425.889    1354.725
  O      286.043     427.005    1355.557
  C      285.396     425.727    1353.512
  N      280.902     426.278    1355.889
  C      281.870     427.182    1355.548
  N      283.029     426.945    1354.893
  C      283.126     425.638    1354.554
  C      282.231     424.617    1354.838
  C      281.072     424.995    1355.539
  N      280.096     424.097    1355.903
  N      282.706     423.412    1354.339
  C      283.857     423.705    1353.775
  N      284.169     425.045    1353.890
  O      289.158     420.927    1353.781
  O      287.741     421.393    1355.933
  H      285.246     426.771    1356.086
  H      286.865     421.721    1356.220
  H      281.685     428.211    1355.848
  H      284.518     422.982    1353.282
  H      285.096     426.680    1353.079
  H      286.311     424.966    1355.340
  H      288.512     425.645    1354.693
  H      287.964     425.612    1351.897
  H      287.753     423.052    1352.158
  H      279.286     424.444    1356.390
  H      280.193     423.128    1355.637
  H      289.264     423.796    1352.768
  P      288.407     428.400    1354.770
  C      290.558     428.970    1353.440
  O      289.376     429.473    1354.068
  O      288.925     427.790    1356.043
  O      287.079     429.258    1355.032
  H      287.031     429.479    1355.998
  H      291.109     429.783    1353.015
  H      290.286     428.281    1352.668
  H      291.163     428.470    1354.167

 6  7  8  9  10  11  12  13  14  15  25  28  32  33  34  35 0
 6-311+G(2d,p)
 ****
 36  39  40 0
 6-311+G(2d,p)
 ****
 1  2  3  4  5  16  17  18  19  20  21  22  23  24 0
 3-21G
 ****
 26  27  29  30  31  37  38  41  42  43  44  45  46  47 0
 3-21G
 ****
 48 0
 3-21G
 ****


