%nproc=1
%NoSave
%Mem=1900MB
#P OB98/GEN NMR

erre ene a

0 1
  C       93.140     393.989    -116.867
  O       93.858     393.348    -117.902
  H       92.661     393.225    -116.247
  H       92.366     394.638    -117.289
  H       93.820     394.577    -116.244
  P       94.545     394.304    -118.995
  C       93.708     396.664    -119.729
  O       93.371     395.327    -119.392
  C       92.444     397.452    -120.056
  O       91.501     397.373    -118.961
  C       92.675     398.946    -120.279
  O       93.211     399.245    -121.557
  C       91.246     399.456    -120.134
  O       90.497     399.123    -121.313
  C       90.771     398.633    -118.914
  N       91.003     399.314    -117.639
  C       89.895     399.936    -117.048
  O       88.794     399.901    -117.590
  N       90.074     400.613    -115.869
  C       91.246     400.653    -115.309
  N       91.359     401.346    -114.142
  C       92.433     400.009    -115.889
  C       92.248     399.362    -117.039
  O       94.649     393.369    -120.290
  O       95.830     394.947    -118.588
  H       90.859     399.665    -122.037
  H       94.926     393.909    -121.074
  H       93.396     400.079    -115.396
  H       93.076     398.861    -117.528
  H       89.704     398.394    -118.996
  H       91.184     400.535    -120.006
  H       93.290     399.383    -119.485
  H       91.976     396.987    -120.928
  H       90.537     401.832    -113.803
  H       94.376     396.640    -120.600
  H       92.250     401.563    -113.716
  H       94.233     397.140    -118.896
  P       94.121     400.570    -121.681
  C       93.712     403.050    -121.016
  O       93.149     401.822    -121.449
  O       94.442     400.637    -123.241
  O       95.362     400.556    -120.845
  H       95.335     401.004    -123.400
  H       92.937     403.780    -120.909
  H       94.425     403.390    -121.738
  H       94.199     402.907    -120.074

 6  7  8  9  10  11  12  13  14  15  16  26  30  31  32  33  35 0
 6-311+G(2d,p)
 ****
 37  38 0
 6-311+G(2d,p)
 ****
 1  2  3  4  5  17  18  19  20  21  22  23  24  25 0
 3-21G
 ****
 27  28  29  34  36  39  40  41  42  43  44  45  46 0
 3-21G
 ****


