%nproc=1
%NoSave
%Mem=1900MB
#P OB98/GEN NMR

erre ene a

0 1
  C     -250.132     182.634       9.626
  O     -251.314     182.292      10.318
  H     -249.520     183.269      10.271
  H     -250.386     183.193       8.720
  H     -249.557     181.746       9.359
  P     -252.216     181.094       9.758
  C     -254.006     182.681       8.788
  O     -253.049     181.670       8.513
  C     -255.077     182.741       7.693
  O     -254.507     183.307       6.487
  C     -255.558     181.331       7.338
  O     -256.906     181.324       6.870
  C     -254.634     180.935       6.197
  O     -255.167     179.902       5.379
  C     -254.464     182.277       5.483
  N     -251.868     180.878       1.324
  C     -253.092     180.430       1.780
  N     -253.692     179.469       1.047
  N     -253.663     180.873       2.872
  C     -252.915     181.781       3.544
  C     -251.679     182.284       3.203
  C     -251.074     181.813       1.975
  O     -249.982     182.162       1.532
  N     -251.224     183.174       4.144
  C     -252.176     183.206       5.056
  N     -253.232     182.387       4.728
  O     -253.348     180.915      10.880
  O     -251.496     179.806       9.496
  H     -255.955     180.261       4.928
  H     -253.706     180.008      10.860
  H     -251.477     180.514       0.471
  H     -252.156     183.801       5.959
  H     -255.292     182.449       4.785
  H     -253.700     180.562       6.627
  H     -253.212     178.974       0.311
  H     -255.472     180.644       8.183
  H     -254.426     178.926       1.515
  H     -255.896     183.403       8.000
  H     -253.467     183.633       8.837
  H     -254.463     182.513       9.767
  P     -257.946     180.368       7.625
  C     -258.989     179.026       5.627
  O     -258.120     179.038       6.743
  O     -259.343     181.131       7.466
  O     -257.604     180.114       9.058
  H     -259.596     181.548       8.311
  H     -258.970     178.058       5.171
  H     -258.669     179.761       4.918
  H     -259.985     179.250       5.948

 6  7  8  9  10  11  12  13  14  15  26  29  33  34 0
 6-311+G(2d,p)
 ****
 36  38  39  40  41 0
 6-311+G(2d,p)
 ****
 1  2  3  4  5  16  17  18  19  20  21  22  23  24  25 0
 3-21G
 ****
 27  28  30  31  32  35  37  42  43  44  45  46  47 0
 3-21G
 ****
 48  49 0
 3-21G
 ****


