%nproc=1
%NoSave
%Mem=1900MB
#P OB98/GEN NMR

erre ene a

0 1
  C      -31.085     186.952    -140.956
  O      -30.792     187.742    -139.798
  P      -29.365     187.505    -139.099
  C      -27.833     188.911    -140.645
  O      -28.448     188.797    -139.369
  C      -27.116     190.256    -140.803
  O      -28.071     191.354    -140.814
  C      -26.111     190.551    -139.683
  O      -25.029     191.299    -140.254
  C      -26.892     191.460    -138.754
  O      -26.028     192.204    -137.898
  C      -27.683     192.277    -139.775
  N      -29.561     196.673    -137.981
  C      -28.361     196.350    -138.504
  N      -27.929     195.146    -138.941
  C      -28.906     194.231    -138.831
  C      -30.177     194.408    -138.307
  C      -30.499     195.702    -137.865
  N      -31.713     196.026    -137.305
  N      -30.877     193.216    -138.319
  C      -30.041     192.338    -138.835
  N      -28.851     192.909    -139.187
  O      -28.699     186.369    -140.009
  O      -29.458     187.077    -137.672
  H      -25.551     191.570    -137.319
  H      -28.684     185.523    -139.525
  H      -27.645     197.168    -138.581
  H      -30.242     191.285    -138.968
  H      -27.081     193.074    -140.230
  H      -27.565     190.863    -138.126
  H      -25.722     189.666    -139.171
  H      -26.599     190.259    -141.770
  H      -28.584     188.809    -141.435
  H      -31.853     196.970    -136.985
  H      -32.403     195.300    -137.170
  H      -27.142     188.070    -140.781
  P      -23.797     190.448    -140.828
  C      -24.432     188.675    -142.616
  O      -24.193     190.041    -142.325
  O      -23.883     189.067    -140.022
  O      -22.468     191.111    -140.666
  H      -23.002     188.648    -139.978
  H      -25.289     188.605    -143.292
  H      -24.648     188.094    -141.714
  H      -23.553     188.257    -143.110
  H      -32.058     187.204    -141.323
  H      -31.060     185.914    -140.696
  H      -30.356     187.147    -141.715

 3  4  5  6  7  8  9  10  11  12  22  25  29  30  31  32 0
 6-311+G(2d,p)
 ****
 33  36  37 0
 6-311+G(2d,p)
 ****
 1  2  13  14  15  16  17  18  19  20  21  23  24  26 0
 3-21G
 ****
 27  28  34  35  38  39  40  41  42  43  44  45  46  47  48 0
 3-21G
 ****


