%nproc=1
%NoSave
%Mem=1900MB
#P OB98/GEN NMR

erre ene a

0 1
  C       61.074      68.095     164.808
  O       62.453      67.778     164.813
  H       60.907      69.045     164.292
  H       60.535      67.306     164.277
  H       60.695      68.154     165.834
  P       63.422      68.806     165.577
  C       63.989      70.043     163.365
  O       63.457      70.136     164.678
  C       64.811      71.287     163.039
  O       63.952      72.449     162.985
  C       65.891      71.622     164.060
  O       67.055      70.829     163.880
  C       66.157      73.084     163.721
  O       67.003      73.168     162.560
  C       64.748      73.595     163.385
  N       63.840      78.095     165.652
  C       64.470      77.776     164.498
  N       64.654      76.556     163.952
  C       64.090      75.605     164.714
  C       63.392      75.778     165.901
  C       63.281      77.094     166.378
  N       62.690      77.401     167.598
  N       62.974      74.561     166.404
  C       63.423      73.670     165.544
  N       64.096      74.253     164.502
  O       64.872      68.157     165.357
  O       63.121      69.009     167.026
  H       67.807      72.655     162.760
  H       65.112      67.634     166.146
  H       64.885      78.614     163.942
  H       63.291      72.602     165.635
  H       64.751      74.296     162.539
  H       66.661      73.627     164.528
  H       65.513      71.556     165.087
  H       65.246      71.152     162.040
  H       63.167      69.953     162.645
  H       63.072      78.240     168.030
  H       62.539      76.603     168.202
  H       64.619      69.148     163.304
  P       67.915      70.453     165.184
  C       69.101      72.751     165.283
  O       68.228      71.836     165.937
  O       69.327      70.025     164.566
  O       67.344      69.367     166.034
  H       69.557      69.123     164.865
  H       69.222      73.624     165.890
  H       68.683      73.029     164.338
  H       70.053      72.288     165.130

 6  7  8  9  10  11  12  13  14  15  25  28  32  33  34  35 0
 6-311+G(2d,p)
 ****
 36  39  40 0
 6-311+G(2d,p)
 ****
 1  2  3  4  5  16  17  18  19  20  21  22  23  24 0
 3-21G
 ****
 26  27  29  30  31  37  38  41  42  43  44  45  46  47  48 0
 3-21G
 ****


