%nproc=1
%NoSave
%Mem=1900MB
#P OB98/GEN NMR

erre ene a

0 1
  C     -766.521    -503.549    -527.179
  O     -766.810    -503.467    -528.557
  P     -767.726    -504.581    -529.267
  C     -766.145    -504.134    -531.251
  O     -767.477    -504.431    -530.847
  C     -765.935    -504.557    -532.704
  O     -766.067    -505.988    -532.858
  C     -766.958    -503.977    -533.673
  O     -766.944    -502.577    -533.876
  C     -766.730    -504.851    -534.900
  O     -765.605    -504.411    -535.659
  C     -766.434    -506.225    -534.243
  N     -767.565    -507.141    -534.356
  C     -767.472    -508.109    -535.342
  O     -766.508    -508.216    -536.102
  N     -768.554    -508.949    -535.470
  C     -769.711    -508.873    -534.747
  O     -770.656    -509.633    -534.942
  C     -769.758    -507.825    -533.724
  C     -768.706    -507.012    -533.571
  O     -769.163    -504.576    -528.861
  O     -766.963    -505.952    -528.938
  H     -765.560    -504.965    -536.456
  H     -766.045    -506.001    -529.270
  H     -768.510    -509.648    -536.197
  H     -770.655    -507.751    -533.122
  H     -768.717    -506.223    -532.822
  H     -765.562    -506.699    -534.720
  H     -767.597    -504.844    -535.565
  H     -767.955    -504.205    -533.296
  H     -764.914    -504.293    -532.990
  H     -765.451    -504.682    -530.620
  H     -765.950    -503.060    -531.118
  P     -768.275    -501.685    -533.884
  C     -768.148    -500.596    -536.237
  O     -768.028    -500.424    -534.837
  O     -768.918    -501.419    -532.560
  O     -769.268    -502.578    -534.774
  H     -770.183    -502.444    -534.465
  H     -767.904    -499.652    -536.728
  H     -769.167    -500.879    -536.500
  H     -767.434    -501.357    -536.583
  H     -765.902    -502.724    -526.895
  H     -766.008    -504.466    -526.976
  H     -767.433    -503.520    -526.621

 3  4  5  6  7  8  9  10  11  12  13  23  28  29  30  31  32 0
 6-311+G(2d,p)
 ****
 33  34 0
 6-311+G(2d,p)
 ****
 1  2  14  15  16  17  18  19  20  21  22  24  25  26  27 0
 3-21G
 ****
 35  36  37  38  39  40  41  42  43  44  45 0
 3-21G
 ****


