%nproc=1
%NoSave
%Mem=1900MB
#P OB98/GEN NMR

erre ene a

0 1
  C      351.568     265.999     274.011
  O      351.240     266.912     272.979
  P      352.210     266.980     271.695
  C      353.487     269.080     272.530
  O      353.552     267.692     272.210
  C      354.760     269.522     273.258
  O      354.826     268.905     274.557
  C      356.054     269.140     272.551
  O      356.386     270.047     271.513
  C      357.048     269.245     273.694
  O      357.398     270.624     273.917
  C      356.233     268.706     274.880
  N      358.875     265.391     277.741
  C      358.914     266.734     277.662
  N      358.178     267.546     276.866
  C      357.373     266.830     276.065
  C      357.255     265.445     276.017
  C      358.049     264.710     276.909
  N      357.993     263.338     277.010
  N      356.323     265.084     275.059
  C      355.883     266.208     274.569
  N      356.475     267.302     275.144
  O      351.521     268.095     270.771
  O      352.385     265.680     270.973
  H      357.765     270.962     273.074
  H      351.792     267.968     269.845
  H      359.614     267.235     278.331
  H      355.125     266.297     273.791
  H      356.429     269.260     275.808
  H      357.983     268.708     273.510
  H      356.024     268.096     272.193
  H      354.709     270.611     273.399
  H      352.629     269.264     273.183
  H      358.447     262.905     277.802
  H      357.232     262.857     276.542
  H      353.358     269.658     271.604
  P      357.357     269.489     270.347
  C      359.201     270.882     271.523
  O      358.842     269.662     270.906
  O      357.224     270.613     269.212
  O      356.984     268.132     269.858
  H      357.419     270.231     268.338
  H      360.115     270.737     272.108
  H      358.418     271.245     272.189
  H      359.403     271.641     270.752
  H      350.839     266.066     274.791
  H      352.534     266.237     274.404
  H      351.579     265.004     273.617

 3  4  5  6  7  8  9  10  11  12  22  25  29  30  31  32 0
 6-311+G(2d,p)
 ****
 33  36  37 0
 6-311+G(2d,p)
 ****
 1  2  13  14  15  16  17  18  19  20  21  23  24  26 0
 3-21G
 ****
 27  28  34  35  38  39  40  41  42  43  44  45  46  47  48 0
 3-21G
 ****


