%nproc=1
%NoSave
%Mem=1900MB
#P OB98/GEN NMR

erre ene a

0 1
  C     -892.390    -275.649    -898.933
  O     -893.200    -276.708    -898.403
  P     -893.220    -276.884    -896.803
  C     -895.690    -276.138    -896.623
  O     -894.370    -275.943    -896.173
  C     -896.670    -275.068    -896.003
  O     -896.710    -275.232    -894.543
  C     -896.250    -273.656    -896.293
  O     -897.440    -272.855    -896.443
  C     -895.520    -273.214    -895.023
  O     -895.420    -271.806    -894.893
  C     -896.400    -273.946    -893.963
  N     -895.510    -271.823    -889.413
  C     -896.210    -271.418    -890.473
  N     -896.410    -272.033    -891.663
  C     -895.720    -273.207    -891.703
  C     -894.930    -273.753    -890.693
  C     -894.810    -273.007    -889.513
  N     -894.050    -273.387    -888.453
  N     -894.380    -274.953    -891.093
  C     -894.850    -275.128    -892.323
  N     -895.710    -274.134    -892.723
  O     -891.830    -276.178    -896.323
  O     -893.260    -278.315    -896.353
  H     -896.360    -271.453    -894.763
  H     -891.200    -276.859    -896.063
  H     -896.760    -270.479    -890.353
  H     -894.590    -275.977    -892.983
  H     -897.320    -273.422    -893.763
  H     -894.490    -273.619    -895.033
  H     -895.610    -273.507    -897.203
  H     -897.690    -275.267    -896.413
  H     -896.030    -277.155    -896.333
  H     -893.990    -272.778    -887.633
  H     -893.510    -274.248    -888.523
  H     -895.730    -276.120    -897.703
  P     -897.570    -271.928    -897.753
  C     -899.350    -273.478    -898.833
  O     -898.060    -272.945    -898.933
  O     -896.030    -271.682    -898.173
  O     -898.310    -270.685    -897.573
  H     -895.950    -270.832    -898.653
  H     -899.840    -273.466    -899.803
  H     -900.000    -272.942    -898.123
  H     -899.300    -274.527    -898.493
  H     -892.465    -275.642    -900.000
  H     -891.370    -275.803    -898.648
  H     -892.730    -274.712    -898.545

 3  4  5  6  7  8  9  10  11  12  22  25  29  30  31  32 0
 6-311+G(2d,p)
 ****
 33  36  37 0
 6-311+G(2d,p)
 ****
 1  2  13  14  15  16  17  18  19  20  21  23  24  26 0
 3-21G
 ****
 27  28  34  35  38  39  40  41  42  43  44  45  46  47  48 0
 3-21G
 ****


