%nproc=1
%NoSave
%Mem=1900MB
#P OB98/GEN NMR

erre ene a

0 1
  C     -319.086     974.147    -872.779
  O     -318.652     975.472    -872.490
  H     -318.742     973.881    -873.780
  H     -320.174     974.078    -872.752
  H     -318.659     973.443    -872.055
  P     -319.168     976.158    -871.128
  C     -321.440     975.894    -869.926
  O     -320.769     976.045    -871.170
  C     -322.893     975.466    -870.170
  O     -322.926     974.406    -871.177
  C     -323.553     974.871    -868.932
  O     -323.926     975.906    -868.026
  C     -324.707     974.115    -869.560
  O     -325.787     974.972    -869.882
  C     -324.038     973.552    -870.830
  N     -323.574     972.163    -870.671
  C     -324.369     971.179    -871.271
  O     -325.397     971.491    -871.895
  N     -324.006     969.869    -871.137
  C     -322.925     969.553    -870.466
  N     -322.634     968.233    -870.361
  C     -322.058     970.560    -869.844
  C     -322.436     971.834    -869.978
  O     -318.647     977.529    -870.836
  O     -318.752     975.095    -870.001
  H     -325.395     975.769    -870.310
  H     -317.860     975.279    -869.662
  H     -321.166     970.260    -869.288
  H     -321.851     972.630    -869.538
  H     -324.723     973.574    -871.682
  H     -325.083     973.339    -868.884
  H     -322.875     974.154    -868.456
  H     -323.452     976.323    -870.555
  H     -323.258     967.577    -870.802
  H     -321.424     976.869    -869.422
  H     -321.761     967.883    -869.950
  H     -320.919     975.164    -869.291
  P     -324.134     975.578    -866.477
  C     -325.691     973.979    -865.164
  O     -325.425     974.606    -866.402
  O     -324.176     976.752    -865.566
  O     -322.921     974.570    -866.140
  H     -322.065     975.044    -866.083
  H     -326.566     973.369    -865.254
  H     -325.851     974.725    -864.414
  H     -324.857     973.368    -864.887

 6  7  8  9  10  11  12  13  14  15  16  26  30  31  32  33  35 0
 6-311+G(2d,p)
 ****
 37  38 0
 6-311+G(2d,p)
 ****
 1  2  3  4  5  17  18  19  20  21  22  23  24  25 0
 3-21G
 ****
 27  28  29  34  36  39  40  41  42  43  44  45  46 0
 3-21G
 ****


