%nproc=1
%NoSave
%Mem=1900MB
#P OB98/GEN NMR

erre ene a

0 1
  C      559.982     -77.787     507.870
  O      559.423     -76.712     508.608
  P      559.895     -76.384     510.109
  C      557.794     -77.323     511.292
  O      559.177     -77.486     511.027
  C      557.556     -77.242     512.805
  O      556.181     -76.819     513.023
  C      557.754     -78.568     513.549
  O      558.293     -78.249     514.833
  C      556.341     -79.108     513.675
  O      556.208     -80.053     514.731
  C      555.553     -77.806     513.871
  N      554.135     -77.954     513.548
  C      553.205     -77.389     514.420
  O      553.571     -76.794     515.437
  N      551.867     -77.490     514.115
  C      551.488     -78.185     513.084
  N      550.162     -78.208     512.797
  C      552.438     -78.894     512.200
  C      553.727     -78.718     512.475
  O      559.681     -74.971     510.534
  O      561.420     -76.859     510.153
  H      556.659     -80.874     514.462
  H      562.051     -76.161     509.824
  H      552.075     -79.482     511.367
  H      554.496     -79.183     511.868
  H      555.658     -77.452     514.906
  H      556.055     -79.607     512.733
  H      558.437     -79.242     513.028
  H      558.205     -76.466     513.217
  H      549.572     -77.569     513.312
  H      557.261     -78.189     510.895
  H      549.834     -78.432     511.861
  H      557.424     -76.425     510.785
  P      559.743     -78.836     515.228
  C      558.688     -81.047     516.101
  O      559.640     -80.441     515.248
  O      559.819     -78.482     516.791
  O      560.908     -78.239     514.511
  H      560.760     -78.406     517.050
  H      558.761     -82.135     515.977
  H      557.674     -80.735     515.828
  H      558.898     -80.798     517.144
  H      559.530     -77.828     506.901
  H      559.802     -78.706     508.387
  H      561.036     -77.638     507.765

 3  4  5  6  7  8  9  10  11  12  13  23  27  28  29  30  32 0
 6-311+G(2d,p)
 ****
 34  35 0
 6-311+G(2d,p)
 ****
 1  2  14  15  16  17  18  19  20  21  22  24  25  26 0
 3-21G
 ****
 31  33  36  37  38  39  40  41  42  43  44  45  46 0
 3-21G
 ****


