%nproc=1
%NoSave
%Mem=1900MB
#P OB98/GEN NMR

erre ene a

0 1
  C     -494.135     658.450     267.115
  O     -494.140     658.283     268.510
  P     -493.194     657.255     269.278
  C     -491.814     659.063     270.584
  O     -491.812     657.996     269.638
  C     -491.046     658.670     271.861
  O     -489.670     658.368     271.491
  C     -491.005     659.834     272.862
  O     -491.203     659.430     274.214
  C     -489.684     660.530     272.533
  O     -489.188     661.342     273.585
  C     -488.807     659.345     272.121
  N     -483.959     660.794     271.655
  C     -484.614     660.331     272.776
  N     -483.974     660.448     273.949
  N     -485.832     659.842     272.732
  C     -486.416     659.907     271.521
  C     -485.842     660.335     270.341
  C     -484.502     660.841     270.380
  O     -483.909     661.365     269.434
  N     -486.754     660.311     269.308
  C     -487.875     659.894     269.867
  N     -487.728     659.670     271.215
  O     -493.124     655.862     268.736
  O     -493.910     657.175     270.728
  H     -489.939     661.873     273.912
  H     -493.798     656.266     271.054
  H     -483.042     661.234     271.767
  H     -488.817     659.766     269.355
  H     -488.350     658.872     272.987
  H     -489.877     661.188     271.678
  H     -483.106     660.949     274.013
  H     -491.831     660.526     272.689
  H     -484.508     660.352     274.803
  H     -491.483     657.753     272.280
  H     -492.863     659.259     270.822
  H     -491.398     659.964     270.141
  P     -491.837     660.246     275.427
  C     -494.329     659.761     275.013
  O     -493.306     660.738     274.985
  O     -491.011     661.611     275.491
  O     -491.789     659.566     276.752
  H     -490.859     661.872     276.413
  H     -495.182     660.136     274.430
  H     -494.638     659.567     276.029
  H     -493.975     658.825     274.551
  H     -494.855     659.194     266.842
  H     -494.385     657.522     266.644
  H     -493.162     658.761     266.797

 3  4  5  6  7  8  9  10  11  12  23  26  30  31 0
 6-311+G(2d,p)
 ****
 33  35  36  37  38 0
 6-311+G(2d,p)
 ****
 1  2  13  14  15  16  17  18  19  20  21  22  24  25 0
 3-21G
 ****
 27  28  29  32  34  39  40  41  42  43  44  45  46  47  48  49 0
 3-21G
 ****


