%nproc=1
%NoSave
%Mem=1900MB
#P OB98/GEN NMR

erre ene a

0 1
  C      -18.232     123.456      44.952
  O      -16.883     123.636      44.560
  H      -18.573     122.478      44.601
  H      -18.856     124.231      44.498
  H      -18.323     123.493      46.042
  P      -16.126     124.905      45.178
  C      -16.559     126.463      43.111
  O      -16.761     126.218      44.497
  C      -17.166     127.809      42.722
  O      -18.591     127.812      42.944
  C      -16.670     128.981      43.553
  O      -15.344     129.349      43.238
  C      -17.697     130.044      43.185
  O      -17.354     130.714      41.966
  C      -18.986     129.204      43.005
  N      -19.949     129.461      44.061
  C      -21.248     129.761      43.628
  O      -21.511     129.774      42.423
  N      -22.197     130.076      44.566
  C      -21.875     130.115      45.823
  N      -22.856     130.465      46.699
  C      -20.518     129.807      46.321
  C      -19.611     129.491      45.394
  O      -14.680     124.807      44.501
  O      -16.101     124.955      46.669
  H      -18.001     131.443      41.862
  H      -14.705     124.677      43.538
  H      -20.304     129.840      47.380
  H      -18.591     129.251      45.672
  H      -19.464     129.435      42.042
  H      -17.778     130.812      43.960
  H      -16.777     128.758      44.624
  H      -16.979     127.972      41.651
  H      -23.755     130.722      46.310
  H      -17.001     125.659      42.510
  H      -22.702     130.605      47.687
  H      -15.481     126.462      42.926
  P      -14.329     129.856      44.370
  C      -15.034     132.269      43.802
  O      -14.843     131.308      44.835
  O      -12.884     129.806      44.001
  O      -14.712     128.948      45.634
  H      -15.633     129.034      45.937
  H      -15.374     133.189      44.229
  H      -15.763     131.907      43.108
  H      -14.108     132.434      43.292

 6  7  8  9  10  11  12  13  14  15  16  26  30  31  32  33  35 0
 6-311+G(2d,p)
 ****
 37  38 0
 6-311+G(2d,p)
 ****
 1  2  3  4  5  17  18  19  20  21  22  23  24  25 0
 3-21G
 ****
 27  28  29  34  36  39  40  41  42  43  44  45  46 0
 3-21G
 ****


