%nproc=1
%NoSave
%Mem=1900MB
#P OB98/GEN NMR

erre ene a

0 1
  C       76.358     -56.506    -105.909
  O       76.314     -57.612    -106.814
  P       77.391     -58.775    -106.557
  C       76.328     -60.358    -104.797
  O       76.582     -60.109    -106.174
  C       75.053     -61.191    -104.616
  O       73.892     -60.479    -105.141
  C       75.103     -62.558    -105.323
  O       74.377     -63.478    -104.495
  C       74.344     -62.275    -106.612
  O       73.924     -63.452    -107.283
  C       73.236     -61.378    -106.068
  N       69.642     -61.681    -109.678
  C       70.135     -62.595    -108.817
  N       71.101     -62.435    -107.882
  C       71.556     -61.172    -107.889
  C       71.154     -60.127    -108.710
  C       70.143     -60.420    -109.644
  N       69.648     -59.501    -110.541
  N       71.879     -58.978    -108.430
  C       72.750     -59.354    -107.509
  N       72.537     -60.638    -107.095
  O       78.090     -58.341    -105.184
  O       78.375     -58.935    -107.669
  H       73.496     -63.213    -108.132
  H       78.942     -57.902    -105.360
  H       69.701     -63.588    -108.887
  H       73.547     -58.739    -107.111
  H       72.485     -61.942    -105.505
  H       74.993     -61.718    -107.299
  H       76.117     -62.936    -105.477
  H       74.888     -61.337    -103.540
  H       76.217     -59.413    -104.260
  H       68.926     -59.806    -111.176
  H       70.005     -58.555    -110.553
  H       77.198     -60.861    -104.359
  P       75.167     -64.698    -103.820
  C       75.901     -63.385    -101.738
  O       75.070     -64.419    -102.239
  O       76.686     -64.270    -104.123
  O       74.809     -66.066    -104.300
  H       76.847     -63.346    -103.861
  H       75.681     -63.244    -100.678
  H       75.707     -62.450    -102.272
  H       76.953     -63.668    -101.847
  H       75.601     -55.798    -106.174
  H       77.319     -56.038    -105.964
  H       76.187     -56.854    -104.912

 3  4  5  6  7  8  9  10  11  12  22  25  29  30  31  32 0
 6-311+G(2d,p)
 ****
 33  36  37 0
 6-311+G(2d,p)
 ****
 1  2  13  14  15  16  17  18  19  20  21  23  24  26 0
 3-21G
 ****
 27  28  34  35  38  39  40  41  42  43  44  45  46  47  48 0
 3-21G
 ****


