%nproc=1
%NoSave
%Mem=1900MB
#P OB98/GEN NMR

erre ene a

0 1
  C     -894.135      16.621    -338.926
  O     -894.355      15.699    -339.967
  H     -895.035      16.696    -338.311
  H     -893.905      17.614    -339.323
  H     -893.305      16.284    -338.291
  P     -893.225      15.533    -341.093
  C     -893.855      17.850    -342.059
  O     -893.695      16.463    -342.313
  C     -894.725      18.474    -343.149
  O     -894.105      18.313    -344.441
  C     -896.085      17.831    -343.271
  O     -896.945      18.251    -342.224
  C     -896.505      18.270    -344.668
  O     -896.995      19.620    -344.669
  C     -895.165      18.168    -345.416
  N     -895.015      16.924    -346.173
  C     -895.645      16.895    -347.424
  O     -896.265      17.874    -347.837
  N     -895.575      15.731    -348.160
  C     -894.915      14.703    -347.701
  N     -894.885      13.591    -348.477
  C     -894.235      14.706    -346.392
  C     -894.325      15.844    -345.685
  O     -892.855      14.132    -341.483
  O     -891.975      16.335    -340.485
  H     -897.665      19.664    -343.964
  H     -891.415      15.734    -339.950
  H     -893.695      13.843    -346.052
  H     -893.855      15.924    -344.714
  H     -895.055      19.019    -346.123
  H     -897.285      17.634    -345.074
  H     -896.005      16.740    -343.278
  H     -894.805      19.552    -342.955
  H     -895.375      13.628    -349.363
  H     -892.865      18.301    -342.068
  H     -894.345      12.774    -348.259
  H     -894.305      18.013    -341.077
  P     -897.755      17.178    -341.347
  C     -899.025      16.295    -343.409
  O     -899.135      16.918    -342.137
  O     -897.905      17.525    -339.897
  O     -896.935      15.825    -341.599
  H     -896.085      15.824    -341.107
  H     -900.000      16.176    -343.833
  H     -898.565      15.335    -343.298
  H     -898.427      16.904    -344.054

 6  7  8  9  10  11  12  13  14  15  16  26  30  31  32  33  35 0
 6-311+G(2d,p)
 ****
 37  38 0
 6-311+G(2d,p)
 ****
 1  2  3  4  5  17  18  19  20  21  22  23  24  25 0
 3-21G
 ****
 27  28  29  34  36  39  40  41  42  43  44  45  46 0
 3-21G
 ****


