%nproc=1
%NoSave
%Mem=1900MB
#P OB98/GEN NMR

erre ene a

0 1
  C     -440.917     275.357      20.779
  O     -439.654     275.947      21.123
  P     -438.965     277.122      20.275
  C     -440.676     278.906      21.031
  O     -439.309     278.520      20.982
  C     -440.807     280.436      20.956
  O     -442.206     280.819      21.023
  C     -440.156     281.201      22.095
  O     -438.748     281.221      21.999
  C     -440.817     282.572      21.951
  O     -440.138     283.376      20.975
  C     -442.228     282.204      21.443
  N     -443.268     282.435      22.431
  C     -443.946     283.653      22.356
  O     -443.607     284.504      21.538
  N     -444.988     283.876      23.230
  C     -445.254     283.009      24.151
  N     -446.304     283.283      24.978
  C     -444.469     281.780      24.356
  C     -443.504     281.553      23.468
  O     -439.296     277.090      18.817
  O     -437.391     276.947      20.513
  H     -436.903     277.315      19.752
  H     -439.198     283.412      21.250
  H     -444.701     281.102      25.172
  H     -442.889     280.663      23.530
  H     -442.466     282.774      20.538
  H     -440.819     283.135      22.889
  H     -440.458     280.751      23.051
  H     -440.401     280.767      19.989
  H     -446.827     284.130      24.804
  H     -441.104     278.565      21.980
  H     -446.608     282.662      25.714
  H     -441.219     278.426      20.210
  P     -437.920     281.158      23.369
  C     -438.316     278.682      24.037
  O     -437.406     279.653      23.561
  O     -439.044     281.330      24.497
  O     -436.861     282.204      23.500
  H     -438.702     281.884      25.223
  H     -438.009     277.701      23.667
  H     -439.340     278.886      23.702
  H     -438.294     278.667      25.133
  H     -441.163     274.599      21.493
  H     -440.853     274.921      19.804
  H     -441.676     276.111      20.784

 3  4  5  6  7  8  9  10  11  12  13  24  27  28  29  30  32 0
 6-311+G(2d,p)
 ****
 34  35 0
 6-311+G(2d,p)
 ****
 1  2  14  15  16  17  18  19  20  21  22  23  25  26 0
 3-21G
 ****
 31  33  36  37  38  39  40  41  42  43  44  45  46 0
 3-21G
 ****


