%nproc=1
%NoSave
%Mem=1900MB
#P OB98/GEN NMR

erre ene a

0 1
  C        1.497     -26.074     -11.560
  O        0.796     -24.955     -11.057
  H        2.551     -25.983     -11.283
  H        1.422     -26.106     -12.651
  H        1.097     -26.997     -11.132
  P       -0.785     -24.916     -11.321
  C       -1.365     -26.031      -9.045
  O       -1.413     -26.119     -10.464
  C       -2.777     -25.862      -8.491
  O       -3.571     -27.021      -8.835
  C       -2.845     -25.756      -6.972
  O       -2.511     -24.457      -6.516
  C       -4.297     -26.135      -6.713
  O       -5.174     -25.015      -6.888
  C       -4.566     -27.184      -7.800
  N       -7.424     -31.068      -6.155
  C       -7.749     -29.866      -6.679
  N       -6.923     -28.891      -7.113
  C       -5.639     -29.262      -6.969
  C       -5.157     -30.449      -6.446
  C       -6.115     -31.385      -6.027
  N       -5.785     -32.593      -5.460
  N       -3.777     -30.441      -6.420
  C       -3.432     -29.275      -6.928
  N       -4.524     -28.534      -7.278
  O       -0.907     -25.426     -12.835
  O       -1.432     -23.587     -11.123
  H       -5.051     -24.705      -7.806
  H       -0.942     -24.658     -13.436
  H       -8.813     -29.660      -6.758
  H       -2.415     -28.923      -7.053
  H       -5.546     -27.049      -8.272
  H       -4.436     -26.501      -5.695
  H       -2.195     -26.508      -6.510
  H       -3.235     -24.984      -8.964
  H       -0.759     -25.166      -8.756
  H       -0.902     -26.940      -8.649
  H       -6.526     -33.207      -5.161
  H       -4.814     -32.794      -5.262
  P       -1.746     -24.310      -5.118
  C        0.618     -23.920      -6.127
  O       -0.222     -24.756      -5.348
  O       -2.360     -25.497      -4.238
  O       -1.906     -22.983      -4.456
  H       -3.040     -25.153      -3.629
  H        1.595     -24.352      -6.186
  H        0.682     -22.954      -5.671
  H        0.210     -23.823      -7.112

 6  7  8  9  10  11  12  13  14  15  25  28  32  33  34  35 0
 6-311+G(2d,p)
 ****
 36  37  40 0
 6-311+G(2d,p)
 ****
 1  2  3  4  5  16  17  18  19  20  21  22  23  24 0
 3-21G
 ****
 26  27  29  30  31  38  39 41  42  43  44  45  46  47  48 0
 3-21G
 ****


