%nproc=1
%NoSave
%Mem=1900MB
#P OB98/GEN NMR

erre ene a

0 1
  C      116.834     103.837      83.687
  O      118.099     103.329      84.065
  H      116.363     104.294      84.562
  H      116.197     103.025      83.322
  H      116.949     104.598      82.910
  P      118.962     102.629      82.910
  C      120.151     104.614      81.707
  O      120.235     103.576      82.672
  C      121.533     105.238      81.473
  O      121.448     106.145      80.333
  C      122.050     106.065      82.662
  O      123.487     106.018      82.640
  C      121.582     107.464      82.290
  O      122.225     108.439      83.078
  C      121.886     107.445      80.795
  N      121.512     112.493      80.079
  C      122.333     111.753      80.854
  N      122.381     110.413      80.984
  C      121.475     109.823      80.185
  C      120.577     110.445      79.332
  C      120.612     111.849      79.294
  N      119.772     112.603      78.510
  N      119.799     109.505      78.674
  C      120.223     108.339      79.124
  N      121.227     108.485      80.043
  O      118.070     102.852      81.600
  O      119.283     101.190      83.130
  H      121.907     109.338      82.852
  H      117.517     102.065      81.436
  H      123.042     112.316      81.457
  H      119.836     107.374      78.830
  H      122.962     107.520      80.597
  H      120.508     107.576      82.470
  H      121.685     105.710      83.628
  H      122.240     104.449      81.196
  H      119.455     105.376      82.076
  H      119.773     104.206      80.762
  H      119.853     113.608      78.554
  H      119.086     112.139      77.934
  P      124.250     104.997      83.625
  C      124.458     102.845      82.150
  O      125.100     103.969      82.736
  O      123.047     104.072      84.142
  O      124.967     105.623      84.774
  H      123.261     103.725      85.029
  H      125.174     102.274      81.596
  H      123.683     103.180      81.492
  H      124.034     102.235      82.920

 6  7  8  9  10  11  12  13  14  15  25  28  32  33  34  35 0
 6-311+G(2d,p)
 ****
 36  37  40 0
 6-311+G(2d,p)
 ****
 1  2  3  4  5  16  17  18  19  20  21  22  23  24 0
 3-21G
 ****
 26  27  29  30  31  38  39 41  42  43  44  45  46  47  48 0
 3-21G
 ****


