%nproc=1
%NoSave
%Mem=1900MB
#P OB98/GEN NMR

erre ene a

0 1
  C      112.454     -51.707    -347.329
  O      111.088     -52.044    -347.248
  P      110.526     -53.400    -347.888
  C      109.737     -52.137    -349.990
  O      110.538     -53.199    -349.483
  C      108.913     -52.618    -351.189
  O      109.819     -52.859    -352.310
  C      108.153     -53.928    -350.906
  O      106.754     -53.875    -351.193
  C      108.944     -54.955    -351.698
  O      108.221     -56.134    -351.998
  C      109.429     -54.121    -352.889
  N      110.522     -54.764    -353.615
  C      110.638     -54.476    -354.970
  O      109.898     -53.717    -355.589
  N      111.622     -55.147    -355.642
  C      112.405     -56.141    -355.134
  O      113.198     -56.770    -355.820
  C      112.209     -56.429    -353.705
  C      111.309     -55.725    -353.015
  O      109.221     -53.874    -347.339
  O      111.735     -54.429    -347.673
  H      107.476     -55.888    -352.579
  H      112.571     -54.172    -348.098
  H      111.718     -54.949    -356.626
  H      112.809     -57.219    -353.278
  H      111.144     -55.918    -351.957
  H      108.620     -53.921    -353.594
  H      109.807     -55.256    -351.089
  H      108.191     -54.185    -349.839
  H      108.227     -51.813    -351.465
  H      110.395     -51.324    -350.309
  H      109.091     -51.746    -349.195
  P      105.589     -54.262    -350.170
  C      105.048     -56.591    -351.197
  O      105.512     -55.859    -350.081
  O      104.282     -53.580    -350.403
  O      106.190     -53.850    -348.743
  H      105.464     -53.609    -348.140
  H      104.590     -57.516    -350.840
  H      105.895     -56.842    -351.841
  H      104.307     -56.024    -351.769
  H      112.619     -50.769    -346.842
  H      112.742     -51.632    -348.357
  H      113.037     -52.465    -346.850

 3  4  5  6  7  8  9  10  11  12  13  23  28  29  30  31  32 0
 6-311+G(2d,p)
 ****
 33  34 0
 6-311+G(2d,p)
 ****
 1  2  14  15  16  17  18  19  20  21  22  24  25  26  27 0
 3-21G
 ****
 35  36  37  38  39  40  41  42  43  44  45 0
 3-21G
 ****


