%nproc=1
%NoSave
%Mem=1900MB
#P OB98/GEN NMR

erre ene a

0 1
  C       35.963    -206.978    -360.073
  O       37.112    -207.499    -359.435
  H       36.003    -205.888    -360.025
  H       35.056    -207.317    -359.564
  H       35.940    -207.283    -361.123
  P       37.270    -209.088    -359.305
  C       38.933    -208.871    -361.273
  O       38.660    -209.476    -360.013
  C       40.159    -209.526    -361.922
  O       41.296    -209.292    -361.053
  C       39.988    -211.044    -362.099
  O       40.240    -211.481    -363.436
  C       40.850    -211.622    -360.984
  O       41.337    -212.923    -361.238
  C       41.934    -210.557    -360.788
  N       42.538    -210.563    -359.459
  C       43.825    -211.087    -359.339
  O       44.491    -211.534    -360.269
  N       44.347    -211.084    -358.071
  C       43.727    -210.628    -356.940
  O       44.251    -210.648    -355.835
  C       42.362    -210.115    -357.126
  C       41.838    -210.104    -358.355
  O       36.097    -209.892    -359.757
  O       37.580    -209.324    -357.753
  H       41.979    -213.138    -360.525
  H       36.786    -209.684    -357.312
  H       45.285    -211.445    -357.972
  H       41.837    -209.759    -356.249
  H       40.833    -209.728    -358.530
  H       42.738    -210.694    -361.518
  H       40.243    -211.681    -360.070
  H       38.945    -211.339    -361.932
  H       40.360    -209.027    -362.877
  H       39.119    -207.803    -361.097
  H       38.063    -208.978    -361.929
  P       39.424    -212.622    -364.197
  C       37.411    -211.082    -364.893
  O       38.477    -211.936    -365.284
  O       38.808    -213.670    -363.333
  O       40.548    -213.345    -365.107
  H       40.284    -214.289    -365.172
  H       36.901    -210.727    -365.764
  H       37.803    -210.251    -364.345
  H       36.727    -211.625    -364.276

 6  7  8  9  10  11  12  13  14  15  16  26  31  32  33  34  35 0
 6-311+G(2d,p)
 ****
 36  37 0
 6-311+G(2d,p)
 ****
 1  2  3  4  5  17  18  19  20  21  22  23  24  25 0
 3-21G
 ****
 27  28  29  30  38  39  40  41  42  43  44  45 0
 3-21G
 ****


