%nproc=1
%NoSave
%Mem=1900MB
#P OB98/GEN NMR

erre ene a

0 1
  C      190.299     -86.408     230.105
  O      191.092     -85.399     230.713
  H      189.632     -85.934     229.384
  H      189.698     -86.916     230.863
  H      190.935     -87.127     229.588
  P      192.155     -85.899     231.807
  C      190.388     -85.476     233.673
  O      191.299     -86.384     233.076
  C      189.965     -85.978     235.070
  O      191.155     -86.511     235.747
  C      189.389     -84.878     235.984
  O      188.461     -85.502     236.881
  C      190.631     -84.427     236.743
  O      190.272     -83.646     237.864
  C      191.276     -85.785     236.989
  N      194.671     -83.413     240.008
  C      193.323     -83.314     239.911
  N      192.482     -83.990     239.096
  C      193.170     -84.857     238.326
  C      194.540     -85.077     238.316
  C      195.313     -84.293     239.205
  N      196.682     -84.395     239.296
  N      194.872     -86.043     237.375
  C      193.725     -86.400     236.835
  N      192.672     -85.710     237.373
  O      192.842     -84.540     232.306
  O      193.171     -86.880     231.316
  H      191.072     -83.395     238.375
  H      193.670     -84.382     231.807
  H      192.850     -82.586     240.587
  H      193.596     -87.146     236.068
  H      190.751     -86.359     237.762
  H      191.263     -83.801     236.113
  H      188.881     -84.082     235.432
  H      189.268     -86.814     234.950
  H      189.499     -85.394     233.029
  H      190.855     -84.480     233.775
  H      197.155     -83.787     239.944
  H      197.172     -85.038     238.687
  P      186.882     -85.310     236.657
  C      186.717     -82.932     237.730
  O      186.561     -83.739     236.569
  O      186.281     -85.699     238.090
  O      186.271     -86.158     235.579
  H      185.381     -86.040     237.980
  H      186.463     -81.919     237.497
  H      187.733     -82.978     238.062
  H      186.072     -83.292     238.504

 6  7  8  9  10  11  12  13  14  15  25  28  32  33  34  35 0
 6-311+G(2d,p)
 ****
 36  37  40 0
 6-311+G(2d,p)
 ****
 1  2  3  4  5  16  17  18  19  20  21  22  23  24 0
 3-21G
 ****
 26  27  29  30  31  38  39 41  42  43  44  45  46  47  48 0
 3-21G
 ****


