%nproc=1
%NoSave
%Mem=1900MB
#P OB98/GEN NMR

erre ene a

0 1
  C     -153.842     -43.590     -39.549
  O     -154.483     -42.836     -40.587
  P     -153.684     -42.112     -41.776
  C     -153.751     -39.715     -40.799
  O     -152.940     -40.825     -41.167
  C     -152.906     -38.447     -40.661
  O     -151.864     -38.642     -39.676
  C     -152.155     -38.027     -41.916
  O     -153.010     -37.468     -42.897
  C     -151.136     -37.045     -41.340
  O     -151.697     -35.733     -41.194
  C     -150.848     -37.650     -39.951
  N     -149.516     -38.222     -39.846
  C     -148.450     -37.321     -39.777
  O     -148.649     -36.111     -39.885
  N     -147.182     -37.818     -39.601
  C     -146.985     -39.099     -39.605
  N     -145.710     -39.533     -39.409
  C     -148.066     -40.081     -39.813
  C     -149.293     -39.578     -39.923
  O     -154.523     -41.808     -42.973
  O     -152.487     -43.107     -42.149
  H     -152.225     -42.969     -43.077
  H     -150.956     -35.131     -40.985
  H     -147.852     -41.139     -39.851
  H     -150.149     -40.231     -40.064
  H     -150.974     -36.886     -39.175
  H     -150.251     -36.949     -41.976
  H     -151.629     -38.895     -42.330
  H     -153.562     -37.635     -40.319
  H     -144.995     -38.833     -39.259
  H     -154.220     -39.934     -39.833
  H     -145.453     -40.508     -39.372
  H     -154.540     -39.582     -41.546
  P     -152.977     -38.136     -44.354
  C     -150.539     -37.630     -45.085
  O     -151.470     -38.598     -44.645
  O     -153.194     -36.895     -45.343
  O     -154.011     -39.191     -44.577
  H     -153.766     -37.162     -46.085
  H     -149.538     -37.942     -44.776
  H     -150.749     -36.644     -44.664
  H     -150.569     -37.573     -46.176
  H     -154.582     -43.973     -38.877
  H     -153.167     -42.956     -39.013
  H     -153.299     -44.404     -39.983

 3  4  5  6  7  8  9  10  11  12  13  24  27  28  29  30  32 0
 6-311+G(2d,p)
 ****
 34  35 0
 6-311+G(2d,p)
 ****
 1  2  14  15  16  17  18  19  20  21  22  23  25  26 0
 3-21G
 ****
 31  33  36  37  38  39  40  41  42  43  44  45  46 0
 3-21G
 ****


