%nproc=1
%NoSave
%Mem=1900MB
#P OB98/GEN NMR

erre ene a

0 1
  C     -262.448    -517.637    -485.651
  O     -262.508    -516.861    -486.833
  H     -261.743    -518.462    -485.803
  H     -263.431    -518.051    -485.419
  H     -262.098    -517.023    -484.813
  P     -263.572    -515.658    -486.842
  C     -262.237    -514.049    -485.277
  O     -263.337    -514.939    -485.424
  C     -262.719    -512.728    -484.686
  O     -263.460    -512.954    -483.467
  C     -261.590    -511.767    -484.304
  O     -261.051    -511.078    -485.430
  C     -262.338    -510.830    -483.373
  O     -263.156    -509.927    -484.139
  C     -263.210    -511.835    -482.571
  N     -262.568    -512.289    -481.333
  C     -263.143    -511.858    -480.131
  O     -264.130    -511.116    -480.139
  N     -262.562    -512.241    -478.950
  C     -261.511    -513.004    -478.962
  N     -260.968    -513.343    -477.758
  C     -260.887    -513.493    -480.201
  C     -261.458    -513.104    -481.334
  O     -264.976    -516.392    -486.625
  O     -263.526    -514.749    -488.030
  H     -263.582    -509.325    -483.503
  H     -265.693    -515.722    -486.494
  H     -260.001    -514.119    -480.158
  H     -261.047    -513.427    -482.288
  H     -264.183    -511.388    -482.322
  H     -261.675    -510.215    -482.757
  H     -260.807    -512.273    -483.738
  H     -263.411    -512.265    -485.410
  H     -261.381    -512.942    -476.920
  H     -261.789    -513.885    -486.264
  H     -260.055    -513.777    -477.670
  H     -261.485    -514.493    -484.619
  P     -259.539    -510.544    -485.309
  C     -258.563    -512.809    -486.157
  O     -258.600    -511.840    -485.119
  O     -259.510    -509.847    -483.873
  O     -259.117    -509.602    -486.402
  H     -258.970    -509.034    -483.883
  H     -257.899    -513.602    -485.882
  H     -258.217    -512.351    -487.060
  H     -259.545    -513.204    -486.311

 6  7  8  9  10  11  12  13  14  15  16  26  30  31  32  33  35 0
 6-311+G(2d,p)
 ****
 37  38 0
 6-311+G(2d,p)
 ****
 1  2  3  4  5  17  18  19  20  21  22  23  24  25 0
 3-21G
 ****
 27  28  29  34  36  39  40  41  42  43  44  45  46 0
 3-21G
 ****


