%nproc=1
%NoSave
%Mem=1900MB
#P OB98/GEN NMR

erre ene a

0 1
  C     -186.339    -231.658    -211.586
  O     -186.180    -230.668    -212.582
  P     -184.818    -229.836    -212.712
  C     -185.044    -230.079    -215.253
  O     -184.767    -229.193    -214.179
  C     -183.973    -229.993    -216.340
  O     -184.266    -228.875    -217.218
  C     -182.547    -229.806    -215.800
  O     -181.673    -230.574    -216.637
  C     -182.301    -228.322    -215.995
  O     -180.918    -228.005    -216.040
  C     -183.073    -228.071    -217.296
  N     -183.392    -226.666    -217.490
  C     -182.990    -226.088    -218.698
  O     -182.283    -226.725    -219.482
  N     -183.390    -224.802    -218.978
  C     -183.967    -224.102    -218.051
  N     -184.408    -222.857    -218.389
  C     -184.182    -224.602    -216.677
  C     -183.916    -225.891    -216.480
  O     -183.584    -230.577    -212.318
  O     -185.045    -228.561    -211.767
  H     -184.302    -228.495    -211.138
  H     -180.817    -227.041    -216.191
  H     -184.552    -223.940    -215.908
  H     -184.066    -226.361    -215.515
  H     -182.497    -228.428    -218.159
  H     -182.752    -227.765    -215.168
  H     -182.438    -230.136    -214.765
  H     -184.028    -230.907    -216.945
  H     -184.279    -222.564    -219.349
  H     -186.010    -229.804    -215.683
  H     -185.130    -222.374    -217.853
  H     -185.132    -231.106    -214.876
  P     -181.273    -232.055    -216.164
  C     -181.658    -232.885    -218.593
  O     -180.814    -232.879    -217.459
  O     -182.719    -232.695    -215.857
  O     -180.408    -232.159    -214.952
  H     -182.615    -233.417    -215.211
  H     -181.219    -233.547    -219.349
  H     -181.737    -231.883    -219.015
  H     -182.651    -233.262    -218.332
  H     -187.313    -232.093    -211.668
  H     -186.228    -231.213    -210.619
  H     -185.597    -232.417    -211.716

 3  4  5  6  7  8  9  10  11  12  13  24  27  28  29  30  32 0
 6-311+G(2d,p)
 ****
 34  35 0
 6-311+G(2d,p)
 ****
 1  2  14  15  16  17  18  19  20  21  22  23  25  26 0
 3-21G
 ****
 31  33  36  37  38  39  40  41  42  43  44  45  46 0
 3-21G
 ****


