%nproc=1
%NoSave
%Mem=1900MB
#P OB98/GEN NMR

erre ene a

0 1
  C      462.444    -785.922      21.638
  O      461.176    -785.426      22.023
  H      463.090    -785.949      22.524
  H      462.897    -785.266      20.893
  H      462.362    -786.938      21.243
  P      459.980    -785.462      20.954
  C      458.316    -786.778      22.429
  O      458.616    -785.540      21.799
  C      456.916    -786.736      23.075
  O      456.968    -785.815      24.215
  C      455.807    -786.234      22.133
  O      454.591    -786.867      22.554
  C      455.790    -784.745      22.476
  O      454.668    -784.077      21.946
  C      455.927    -784.838      23.996
  N      456.251    -783.583      24.672
  C      455.254    -782.975      25.429
  O      454.104    -783.419      25.565
  N      455.599    -781.797      26.028
  C      456.822    -781.192      25.975
  O      457.080    -780.146      26.569
  C      457.831    -781.866      25.158
  C      457.513    -783.022      24.562
  O      460.112    -786.468      19.868
  O      459.946    -783.965      20.383
  H      460.374    -783.943      19.498
  H      454.708    -784.130      20.966
  H      454.889    -781.345      26.591
  H      458.804    -781.414      25.084
  H      458.239    -783.564      23.966
  H      455.015    -785.244      24.435
  H      456.662    -784.261      22.030
  H      455.997    -786.455      21.084
  H      456.685    -787.719      23.473
  H      459.072    -786.967      23.202
  H      458.355    -787.580      21.689
  P      453.520    -787.489      21.524
  C      453.498    -790.077      21.653
  O      452.943    -788.849      22.151
  O      454.034    -787.634      20.128
  O      452.264    -786.479      21.573
  H      451.783    -786.544      20.723
  H      453.033    -790.905      22.147
  H      454.551    -790.095      21.841
  H      453.323    -790.146      20.600

 6  7  8  9  10  11  12  13  14  15  16  27  31  32  33  34  35 0
 6-311+G(2d,p)
 ****
 36  37 0
 6-311+G(2d,p)
 ****
 1  2  3  4  5  17  18  19  20  21  22  23  24  25 0
 3-21G
 ****
 26  28  29  30  38  39  40  41  42  43  44  45 0
 3-21G
 ****


