%nproc=1
%NoSave
%Mem=1900MB
#P OB98/GEN NMR

erre ene a

0 1
  C       41.489     634.126     922.248
  O       42.202     635.341     922.308
  P       41.439     636.756     922.220
  C       43.233     637.831     923.727
  O       42.579     637.863     922.450
  C       44.142     639.052     923.876
  O       43.345     640.236     923.694
  C       44.831     639.214     925.231
  O       46.040     638.468     925.384
  C       45.162     640.701     925.193
  O       46.340     640.915     924.394
  C       43.934     641.291     924.518
  N       42.701     645.047     927.750
  C       43.754     644.885     926.929
  N       44.005     643.857     926.108
  C       43.027     642.922     926.172
  C       41.893     642.965     926.973
  C       41.746     644.093     927.793
  N       40.658     644.262     928.647
  N       41.125     641.838     926.767
  C       41.768     641.139     925.860
  N       42.933     641.761     925.467
  O       40.233     636.867     923.083
  O       41.112     636.916     920.654
  H       47.064     640.421     924.816
  H       40.412     637.599     920.533
  H       44.487     645.692     926.913
  H       41.457     640.178     925.464
  H       44.181     642.124     923.844
  H       45.372     641.096     926.203
  H       44.123     639.008     926.046
  H       44.893     639.007     923.056
  H       43.832     636.909     923.781
  H       40.572     645.166     929.099
  H       39.866     643.633     928.531
  H       42.487     637.791     924.521
  P       46.478     638.118     926.897
  C       47.034     635.611     926.330
  O       47.494     636.875     926.767
  O       45.355     637.920     927.861
  O       47.447     639.342     927.257
  H       48.277     639.389     926.766
  H       47.910     634.947     926.143
  H       46.474     635.702     925.409
  H       46.395     635.151     927.112
  H       42.173     633.307     922.323
  H       40.962     634.067     921.318
  H       40.790     634.082     923.057

 3  4  5  6  7  8  9  10  11  12  22  25  29  30  31  32 0
 6-311+G(2d,p)
 ****
 33  36  37 0
 6-311+G(2d,p)
 ****
 1  2  13  14  15  16  17  18  19  20  21  23  24  26 0
 3-21G
 ****
 27  28  34  35  38  39  40  41  42  43  44  45  46  47  48 0
 3-21G
 ****


