%nproc=1
%NoSave
%Mem=1900MB
#P OB98/GEN NMR

erre ene a

0 1
  C       48.421    -138.648     424.769
  O       48.249    -139.802     423.941
  P       47.755    -139.583     422.433
  C       49.964    -140.096     421.163
  O       48.641    -140.512     421.478
  C       50.784    -141.282     420.634
  O       51.005    -142.279     421.654
  C       50.120    -142.006     419.472
  O       50.359    -141.357     418.234
  C       50.853    -143.341     419.508
  O       52.139    -143.208     418.870
  C       51.022    -143.576     421.012
  N       49.369    -148.330     421.542
  C       50.495    -147.843     420.904
  N       51.308    -148.765     420.336
  N       50.805    -146.576     420.838
  C       49.911    -145.779     421.469
  C       48.760    -146.136     422.135
  C       48.423    -147.543     422.188
  O       47.430    -148.029     422.724
  N       48.111    -145.040     422.644
  C       48.877    -144.016     422.302
  N       49.973    -144.412     421.578
  O       48.286    -138.112     422.096
  O       46.275    -139.692     422.251
  H       51.972    -143.202     417.905
  H       47.711    -137.695     421.425
  H       49.180    -149.315     421.559
  H       48.682    -142.987     422.567
  H       51.981    -144.049     421.257
  H       50.313    -144.126     418.973
  H       51.157    -149.756     420.388
  H       49.048    -142.165     419.658
  H       52.154    -148.427     419.890
  H       51.760    -140.895     420.305
  H       50.454    -139.675     422.044
  H       49.917    -139.281     420.435
  P       49.106    -141.104     417.263
  C       48.998    -138.600     417.947
  O       49.142    -139.541     416.898
  O       47.858    -141.249     418.252
  O       49.011    -142.042     416.110
  H       47.090    -141.600     417.770
  H       49.209    -137.602     417.539
  H       49.715    -138.807     418.747
  H       47.980    -138.616     418.335
  H       48.752    -138.952     425.740
  H       47.489    -138.129     424.856
  H       49.151    -138.000     424.330

 3  4  5  6  7  8  9  10  11  12  23  26  30  31 0
 6-311+G(2d,p)
 ****
 33  35  36  37  38 0
 6-311+G(2d,p)
 ****
 1  2  13  14  15  16  17  18  19  20  21  22  24  25 0
 3-21G
 ****
 27  28  29  32  34  39  40  41  42  43  44  45  46  47  48  49 0
 3-21G
 ****


