%nproc=1
%NoSave
%Mem=1900MB
#P OB98/GEN NMR

erre ene a

0 1
  C     -650.873    -111.745    -567.141
  O     -650.593    -112.168    -568.487
  P     -651.453    -113.281    -569.247
  C     -649.749    -115.050    -570.033
  O     -650.567    -113.943    -570.410
  C     -648.754    -115.419    -571.136
  O     -649.449    -115.818    -572.348
  C     -647.815    -114.302    -571.559
  O     -646.781    -114.110    -570.608
  C     -647.343    -114.810    -572.919
  O     -646.272    -115.755    -572.774
  C     -648.609    -115.497    -573.467
  N     -649.303    -114.680    -574.447
  C     -648.563    -114.256    -575.558
  O     -647.358    -114.529    -575.632
  N     -649.187    -113.505    -576.532
  C     -650.428    -113.160    -576.371
  N     -651.000    -112.434    -577.374
  C     -651.222    -113.504    -575.181
  C     -650.605    -114.257    -574.271
  O     -652.800    -112.799    -569.704
  O     -651.624    -114.477    -568.182
  H     -646.643    -116.535    -572.338
  H     -652.477    -114.921    -568.341
  H     -652.249    -113.177    -575.084
  H     -651.117    -114.571    -573.378
  H     -648.356    -116.460    -573.928
  H     -646.969    -114.005    -573.565
  H     -648.394    -113.368    -571.697
  H     -648.173    -116.300    -570.798
  H     -650.428    -112.210    -578.185
  H     -650.409    -115.911    -569.836
  H     -651.956    -112.105    -577.352
  H     -649.212    -114.807    -569.111
  P     -646.583    -112.663    -569.947
  C     -644.027    -112.668    -569.651
  O     -645.282    -112.752    -568.998
  O     -647.785    -112.058    -569.305
  O     -646.069    -111.753    -571.160
  H     -646.374    -110.832    -571.036
  H     -643.276    -112.332    -568.932
  H     -644.053    -111.957    -570.493
  H     -643.743    -113.661    -570.029
  H     -650.168    -110.995    -566.849
  H     -650.797    -112.583    -566.481
  H     -651.863    -111.342    -567.093

 3  4  5  6  7  8  9  10  11  12  13  23  27  28  29  30  32 0
 6-311+G(2d,p)
 ****
 34  35 0
 6-311+G(2d,p)
 ****
 1  2  14  15  16  17  18  19  20  21  22  24  25  26 0
 3-21G
 ****
 31  33  36  37  38  39  40  41  42  43  44  45  46 0
 3-21G
 ****


