%nproc=1
%NoSave
%Mem=1900MB
#P OB98/GEN NMR

erre ene a

0 1
  C     -380.429    -158.388     -16.400
  O     -379.963    -157.057     -16.481
  H     -380.648    -158.747     -17.409
  H     -381.345    -158.436     -15.805
  H     -379.662    -159.027     -15.956
  P     -379.682    -156.301     -15.096
  C     -378.100    -154.713     -16.410
  O     -379.154    -154.833     -15.464
  C     -377.820    -153.236     -16.675
  O     -377.749    -152.517     -15.419
  C     -376.491    -152.970     -17.368
  O     -376.543    -153.211     -18.764
  C     -376.284    -151.503     -17.042
  O     -376.973    -150.650     -17.967
  C     -376.882    -151.386     -15.627
  N     -375.840    -151.298     -14.605
  C     -375.147    -150.090     -14.554
  O     -375.377    -149.145     -15.307
  N     -374.142    -150.021     -13.628
  C     -373.741    -151.030     -12.805
  O     -372.795    -150.916     -12.034
  C     -374.500    -152.286     -12.915
  C     -375.497    -152.363     -13.800
  O     -378.381    -157.044     -14.533
  O     -380.813    -156.335     -14.120
  H     -378.629    -157.624     -13.789
  H     -376.745    -149.734     -17.708
  H     -373.630    -149.153     -13.574
  H     -374.206    -153.109     -12.276
  H     -376.064    -153.283     -13.909
  H     -377.511    -150.489     -15.549
  H     -375.231    -151.239     -17.083
  H     -375.692    -153.557     -16.897
  H     -378.652    -152.822     -17.261
  H     -378.393    -155.193     -17.350
  H     -377.212    -155.216     -16.020
  P     -375.153    -153.418     -19.539
  C     -376.568    -154.738     -21.324
  O     -375.546    -153.793     -21.048
  O     -374.657    -154.794     -18.891
  O     -374.215    -152.269     -19.381
  H     -375.405    -155.338     -18.585
  H     -376.677    -154.847     -22.383
  H     -377.491    -154.398     -20.904
  H     -376.307    -155.682     -20.893

 6  7  8  9  10  11  12  13  14  15  16  27  31  32  33  34  35 0
 6-311+G(2d,p)
 ****
 36  37 0
 6-311+G(2d,p)
 ****
 1  2  3  4  5  17  18  19  20  21  22  23  24  25 0
 3-21G
 ****
 26  28  29  30  38  39  40  41  42  43  44  45 0
 3-21G
 ****


