%nproc=1
%NoSave
%Mem=1900MB
#P OB98/GEN NMR

erre ene a

0 1
  C      733.672     -77.456    -619.961
  O      734.511     -77.440    -618.823
  H      732.787     -78.073    -619.766
  H      733.340     -76.433    -620.171
  H      734.208     -77.834    -620.833
  P      735.114     -78.856    -618.352
  C      735.932     -77.747    -616.149
  O      735.173     -78.794    -616.749
  C      735.589     -77.652    -614.659
  O      734.200     -77.318    -614.485
  C      735.794     -78.956    -613.890
  O      737.155     -79.152    -613.527
  C      734.927     -78.696    -612.666
  O      735.624     -77.812    -611.757
  C      733.717     -77.993    -613.286
  N      729.054     -79.653    -611.976
  C      729.897     -78.764    -611.413
  N      731.109     -78.372    -611.818
  C      731.471     -79.012    -612.943
  C      730.734     -79.962    -613.637
  C      729.460     -80.281    -613.110
  N      728.618     -81.207    -613.691
  N      731.433     -80.440    -614.726
  C      732.569     -79.752    -614.708
  N      732.646     -78.893    -613.637
  O      736.663     -78.767    -618.781
  O      734.439     -80.070    -618.909
  H      735.103     -77.801    -610.930
  H      737.043     -79.661    -618.835
  H      729.518     -78.276    -610.499
  H      733.362     -79.857    -615.432
  H      733.300     -77.221    -612.622
  H      734.692     -79.603    -612.104
  H      735.389     -79.825    -614.435
  H      736.188     -76.842    -614.219
  H      735.690     -76.794    -616.631
  H      727.818     -81.491    -613.143
  H      728.969     -81.778    -614.437
  H      737.001     -77.952    -616.278
  P      737.857     -80.515    -614.026
  C      739.167     -80.438    -611.771
  O      738.428     -81.229    -612.701
  O      739.185     -79.986    -614.760
  O      737.017     -81.367    -614.917
  H      739.471     -80.618    -615.446
  H      739.477     -81.050    -610.950
  H      738.550     -79.642    -611.410
  H      740.029     -80.029    -612.256

 6  7  8  9  10  11  12  13  14  15  25  28  32  33  34  35 0
 6-311+G(2d,p)
 ****
 36  39  40 0
 6-311+G(2d,p)
 ****
 1  2  3  4  5  16  17  18  19  20  21  22  23  24 0
 3-21G
 ****
 26  27  29  30  31  37  38  41  42  43  44  45  46  47 0
 3-21G
 ****
 48 0
 3-21G
 ****


