%nproc=1
%NoSave
%Mem=1900MB
#P OB98/GEN NMR

erre ene a

0 1
  C       44.528     199.148    -154.391
  O       44.501     200.523    -154.075
  H       44.400     198.574    -153.471
  H       45.494     198.889    -154.833
  H       43.722     198.884    -155.082
  P       44.375     201.590    -155.264
  C       46.477     202.985    -154.728
  O       45.057     202.943    -154.734
  C       46.982     204.217    -153.972
  O       46.575     205.413    -154.697
  C       46.433     204.340    -152.542
  O       47.434     204.998    -151.755
  C       45.240     205.251    -152.746
  O       44.812     205.825    -151.532
  C       45.798     206.220    -153.793
  N       44.745     206.963    -154.484
  C       44.444     208.223    -153.984
  O       44.993     208.705    -152.993
  N       43.453     208.907    -154.631
  C       42.706     208.434    -155.670
  O       41.807     209.077    -156.194
  C       43.040     207.074    -156.130
  C       44.029     206.413    -155.527
  O       43.009     201.763    -155.836
  O       45.422     201.081    -156.363
  H       44.250     206.610    -151.705
  H       45.116     201.327    -157.257
  H       43.230     209.827    -154.288
  H       42.460     206.666    -156.946
  H       44.298     205.411    -155.843
  H       46.473     206.949    -153.325
  H       44.394     204.692    -153.158
  H       46.169     203.378    -152.099
  H       48.078     204.204    -153.973
  H       46.817     203.022    -155.768
  H       46.866     202.076    -154.259
  P       48.654     204.199    -151.084
  C       47.909     204.580    -148.649
  O       48.924     204.803    -149.623
  O       49.872     204.107    -151.944
  O       48.066     202.740    -150.779
  H       48.787     202.085    -150.796
  H       48.201     205.026    -147.721
  H       47.772     203.528    -148.511
  H       46.992     205.018    -148.983

 6  7  8  9  10  11  12  13  14  15  16  26  31  32  33  34  35 0
 6-311+G(2d,p)
 ****
 36  37 0
 6-311+G(2d,p)
 ****
 1  2  3  4  5  17  18  19  20  21  22  23  24  25 0
 3-21G
 ****
 27  28  29  30  38  39  40  41  42  43  44  45 0
 3-21G
 ****


