%nproc=1
%NoSave
%Mem=1900MB
#P OB98/GEN NMR

erre ene a

0 1
  C      -37.555    -889.070     -42.855
  O      -38.513    -889.950     -43.417
  H      -37.772    -888.060     -43.195
  H      -36.556    -889.350     -43.189
  H      -37.609    -889.100     -41.764
  P      -38.535    -891.460     -42.872
  C      -37.266    -892.410     -44.933
  O      -37.271    -892.200     -43.529
  C      -35.881    -892.880     -45.390
  O      -35.773    -894.310     -45.125
  C      -35.614    -892.670     -46.887
  O      -34.228    -892.340     -47.049
  C      -35.862    -894.050     -47.480
  O      -35.210    -894.270     -48.716
  C      -35.357    -894.960     -46.350
  N      -35.871    -896.310     -46.437
  C      -35.035    -897.280     -47.004
  O      -33.868    -897.090     -47.343
  N      -35.598    -898.520     -47.157
  C      -36.878    -898.880     -46.844
  O      -37.319    -900.000     -47.026
  C      -37.715    -897.810     -46.263
  C      -37.172    -896.600     -46.095
  O      -39.779    -892.100     -43.643
  O      -38.640    -891.600     -41.393
  H      -40.601    -891.980     -43.131
  H      -34.249    -894.350     -48.539
  H      -35.012    -899.230     -47.553
  H      -38.734    -898.050     -46.013
  H      -37.774    -895.780     -45.690
  H      -34.259    -894.970     -46.347
  H      -36.941    -894.190     -47.631
  H      -36.235    -891.910     -47.353
  H      -35.120    -892.390     -44.778
  H      -37.502    -891.470     -45.440
  H      -38.025    -893.150     -45.192
  P      -33.879    -890.880     -47.612
  C      -33.951    -891.920     -50.028
  O      -34.369    -890.880     -49.143
  O      -32.284    -890.950     -47.698
  O      -34.426    -889.780     -46.759
  H      -31.955    -891.830     -47.957
  H      -34.373    -891.754     -50.997
  H      -34.284    -892.864     -49.651
  H      -32.883    -891.920     -50.099

 6  7  8  9  10  11  12  13  14  15  16  27  31  32  33  34  35 0
 6-311+G(2d,p)
 ****
 36  37 0
 6-311+G(2d,p)
 ****
 1  2  3  4  5  17  18  19  20  21  22  23  24  25 0
 3-21G
 ****
 26  28  29  30  38  39  40  41  42  43  44  45 0
 3-21G
 ****


