%nproc=1
%NoSave
%Mem=1900MB
#P OB98/GEN NMR

erre ene a

0 1
  C      104.665      14.450     -80.424
  O      104.809      13.071     -80.143
  P      103.628      12.055     -80.506
  C      101.121      11.902     -79.964
  O      102.394      12.373     -79.533
  C      100.023      12.871     -79.531
  O      100.230      14.166     -80.131
  C       98.620      12.445     -79.947
  O       98.137      11.412     -79.112
  C       97.866      13.765     -79.832
  O       97.488      14.014     -78.468
  C       98.928      14.776     -80.287
  N       95.998      17.522     -83.430
  C       95.839      17.157     -82.141
  N       96.649      16.388     -81.382
  C       97.705      15.968     -82.097
  C       97.983      16.229     -83.429
  C       97.082      17.069     -84.105
  N       97.265      17.499     -85.401
  N       99.147      15.590     -83.812
  C       99.555      14.952     -82.736
  N       98.751      15.203     -81.660
  O      104.021      10.618     -80.579
  O      103.106      12.572     -81.928
  H       97.006      13.226     -78.152
  H      103.220      11.864     -82.591
  H       94.948      17.539     -81.651
  H      100.428      14.315     -82.681
  H       98.926      15.678     -79.663
  H       96.951      13.780     -80.430
  H       98.624      12.125     -80.996
  H      100.083      12.990     -78.441
  H      100.947      10.920     -79.514
  H       96.638      18.213     -85.738
  H       98.195      17.426     -85.805
  H      101.123      11.795     -81.053
  P       96.962      10.455     -79.627
  C       94.474      10.749     -80.176
  O       95.596      11.284     -79.502
  O       96.934       9.086     -79.032
  O       97.195      10.394     -81.211
  H       96.913       9.524     -81.548
  H       94.548      10.971     -81.244
  H       93.570      11.214     -79.777
  H       94.411       9.666     -80.030
  H      105.547      14.971     -80.115
  H      103.819      14.836     -79.894
  H      104.520      14.587     -81.475

 3  4  5  6  7  8  9  10  11  12  22  25  29  30  31  32 0
 6-311+G(2d,p)
 ****
 33  36  37 0
 6-311+G(2d,p)
 ****
 1  2  13  14  15  16  17  18  19  20  21  23  24  26 0
 3-21G
 ****
 27  28  34  35  38  39  40  41  42  43  44  45  46  47  48 0
 3-21G
 ****


