%nproc=1
%NoSave
%Mem=1900MB
#P OB98/GEN NMR

erre ene a

0 1
  C      -35.238     -42.298     306.307
  O      -36.638     -42.219     306.505
  H      -34.818     -41.288     306.354
  H      -35.021     -42.725     305.323
  H      -34.778     -42.908     307.090
  P      -37.438     -43.609     306.489
  C      -38.373     -45.102     304.567
  O      -37.462     -44.088     304.957
  C      -38.849     -44.871     303.127
  O      -39.594     -43.616     303.077
  C      -37.701     -44.745     302.106
  O      -38.196     -45.199     300.833
  C      -37.492     -43.240     302.064
  O      -36.711     -42.869     300.947
  C      -38.951     -42.781     302.090
  N      -41.356     -38.437     300.859
  C      -41.456     -39.691     300.370
  N      -40.792     -40.802     300.757
  C      -39.960     -40.525     301.775
  C      -39.756     -39.297     302.387
  C      -40.497     -38.213     301.885
  N      -40.392     -36.932     302.379
  N      -38.824     -39.408     303.404
  C      -38.470     -40.677     303.402
  N      -39.125     -41.389     302.433
  O      -38.951     -43.163     306.776
  O      -36.963     -44.636     307.462
  H      -36.592     -41.895     300.912
  H      -39.149     -43.254     307.727
  H      -42.165     -39.823     299.549
  H      -37.743     -41.133     304.068
  H      -39.451     -42.952     301.131
  H      -36.958     -42.895     302.951
  H      -36.815     -45.322     302.379
  H      -39.549     -45.668     302.850
  H      -39.230     -45.080     305.251
  H      -37.883     -46.080     304.636
  H      -40.947     -36.207     301.950
  H      -39.745     -36.747     303.128
  P      -37.654     -46.593     300.236
  C      -36.290     -47.356     298.133
  O      -36.761     -46.284     298.939
  O      -38.981     -47.214     299.578
  O      -37.061     -47.539     301.229
  H      -38.919     -48.189     299.580
  H      -35.716     -46.965     297.319
  H      -37.123     -47.907     297.750
  H      -35.676     -48.003     298.724

 6  7  8  9  10  11  12  13  14  15  25  28  32  33  34  35 0
 6-311+G(2d,p)
 ****
 36  37  40 0
 6-311+G(2d,p)
 ****
 1  2  3  4  5  16  17  18  19  20  21  22  23  24 0
 3-21G
 ****
 26  27  29  30  31  38  39 41  42  43  44  45  46  47  48 0
 3-21G
 ****


