%nproc=1
%NoSave
%Mem=1900MB
#P OB98/GEN NMR

erre ene a

0 1
  C        8.045     -35.739     -84.224
  O        8.859     -34.607     -84.004
  H        7.648     -36.078     -83.264
  H        8.641     -36.546     -84.657
  H        7.207     -35.501     -84.884
  P        9.342     -33.739     -85.261
  C       11.618     -33.372     -86.421
  O       10.846     -34.206     -85.569
  C       12.949     -34.048     -86.754
  O       13.710     -34.190     -85.515
  C       12.788     -35.453     -87.368
  O       13.848     -35.665     -88.307
  C       12.985     -36.337     -86.153
  O       13.326     -37.653     -86.509
  C       14.081     -35.576     -85.411
  N       14.197     -36.020     -84.025
  C       14.890     -37.204     -83.801
  O       15.388     -37.883     -84.697
  N       14.934     -37.635     -82.504
  C       14.274     -37.072     -81.452
  O       14.284     -37.545     -80.326
  C       13.511     -35.850     -81.759
  C       13.513     -35.384     -83.010
  O        9.160     -32.263     -85.145
  O        8.539     -34.357     -86.500
  H       13.202     -38.247     -85.746
  H        8.499     -33.715     -87.233
  H       15.442     -38.487     -82.323
  H       12.963     -35.386     -80.951
  H       12.949     -34.498     -83.275
  H       15.050     -35.699     -85.910
  H       12.065     -36.377     -85.562
  H       11.821     -35.601     -87.854
  H       13.530     -33.392     -87.413
  H       11.800     -32.425     -85.900
  H       11.058     -33.170     -87.340
  P       13.599     -35.600     -89.892
  C       12.318     -36.834     -91.744
  O       12.694     -36.840     -90.370
  O       14.842     -35.410     -90.700
  O       12.627     -34.341     -90.085
  H       12.953     -33.797     -90.828
  H       11.722     -37.697     -91.954
  H       13.197     -36.850     -92.354
  H       11.753     -35.950     -91.955

 6  7  8  9  10  11  12  13  14  15  16  26  31  32  33  34  35 0
 6-311+G(2d,p)
 ****
 36  37 0
 6-311+G(2d,p)
 ****
 1  2  3  4  5  17  18  19  20  21  22  23  24  25 0
 3-21G
 ****
 27  28  29  30  38  39  40  41  42  43  44  45 0
 3-21G
 ****


