%nproc=1
%NoSave
%Mem=1900MB
#P OB98/GEN NMR

erre ene a

0 1
  C     -504.368     951.935     465.284
  O     -505.048     951.558     466.466
  H     -503.423     952.395     465.567
  H     -504.955     952.664     464.743
  H     -504.161     951.067     464.664
  P     -506.399     950.703     466.347
  C     -505.502     949.004     468.066
  O     -506.568     949.888     467.714
  C     -505.791     948.376     469.434
  O     -507.172     947.896     469.491
  C     -504.907     947.168     469.757
  O     -503.592     947.540     470.114
  C     -505.737     946.515     470.877
  O     -505.459     947.159     472.133
  C     -507.181     946.783     470.411
  N     -507.798     945.609     469.798
  C     -507.884     944.472     470.611
  O     -507.520     944.450     471.794
  N     -508.393     943.352     470.004
  C     -508.660     943.212     468.668
  O     -508.861     942.149     468.133
  C     -508.565     944.447     467.868
  C     -508.130     945.561     468.461
  O     -506.538     949.896     465.092
  O     -507.551     951.814     466.449
  H     -507.893     952.009     465.550
  H     -506.209     946.941     472.721
  H     -508.432     942.511     470.581
  H     -508.849     944.410     466.813
  H     -508.061     946.496     467.882
  H     -507.799     947.090     471.264
  H     -505.491     945.473     470.978
  H     -504.902     946.487     468.891
  H     -505.671     949.165     470.219
  H     -504.577     949.586     468.120
  H     -505.413     948.229     467.288
  P     -502.371     947.233     469.140
  C     -501.318     949.538     469.592
  O     -501.117     948.141     469.599
  O     -502.680     947.287     467.676
  O     -501.911     945.771     469.549
  H     -501.855     945.211     468.725
  H     -500.423     950.029     469.913
  H     -502.119     949.786     470.257
  H     -501.565     949.858     468.601

 6  7  8  9  10  11  12  13  14  15  16  27  31  32  33  34  35 0
 6-311+G(2d,p)
 ****
 36  37 0
 6-311+G(2d,p)
 ****
 1  2  3  4  5  17  18  19  20  21  22  23  24  25 0
 3-21G
 ****
 26  28  29  30  38  39  40  41  42  43  44  45 0
 3-21G
 ****


