%nproc=1
%NoSave
%Mem=1900MB
#P OB98/GEN NMR

erre ene a

0 1
  C     -153.803     363.376     598.358
  O     -152.525     362.775     598.391
  H     -154.558     362.586     598.301
  H     -153.897     364.014     597.476
  H     -153.981     363.963     599.261
  P     -151.243     363.704     598.646
  C     -152.054     364.164     601.048
  O     -151.634     364.730     599.812
  C     -151.452     364.949     602.213
  O     -150.012     364.797     602.218
  C     -151.696     366.452     602.135
  O     -153.025     366.780     602.492
  C     -150.629     366.965     603.085
  O     -151.058     366.874     604.449
  C     -149.460     365.987     602.814
  N     -148.438     366.584     601.949
  C     -147.766     367.688     602.463
  O     -147.983     368.159     603.579
  N     -146.864     368.284     601.619
  C     -146.687     367.973     600.303
  O     -146.058     368.683     599.524
  C     -147.376     366.763     599.832
  C     -148.219     366.140     600.662
  O     -150.643     364.323     597.425
  O     -150.206     362.720     599.371
  H     -149.538     362.426     598.722
  H     -150.353     367.298     604.978
  H     -146.405     369.111     601.970
  H     -147.202     366.441     598.813
  H     -148.766     365.262     600.326
  H     -148.986     365.687     603.756
  H     -150.382     368.009     602.883
  H     -151.477     366.812     601.121
  H     -151.845     364.535     603.149
  H     -151.712     363.124     601.093
  H     -153.148     364.182     601.093
  P     -153.717     368.101     601.909
  C     -155.204     366.845     600.226
  O     -154.165     367.807     600.395
  O     -152.941     369.365     602.098
  O     -155.119     368.180     602.682
  H     -155.223     369.079     603.053
  H     -155.418     366.731     599.184
  H     -156.084     367.177     600.737
  H     -154.890     365.906     600.630

 6  7  8  9  10  11  12  13  14  15  16  27  31  32  33  34  35 0
 6-311+G(2d,p)
 ****
 36  37 0
 6-311+G(2d,p)
 ****
 1  2  3  4  5  17  18  19  20  21  22  23  24  25 0
 3-21G
 ****
 26  28  29  30  38  39  40  41  42  43  44  45 0
 3-21G
 ****


