%nproc=1
%NoSave
%Mem=1900MB
#P OB98/GEN NMR

erre ene a

0 1
  C        0.894    -193.624     306.022
  O        1.898    -193.223     305.114
  H        0.023    -192.974     305.892
  H        1.259    -193.515     307.049
  H        0.596    -194.658     305.839
  P        3.189    -194.174     305.000
  C        5.179    -192.957     306.144
  O        4.097    -193.867     306.291
  C        4.658    -191.561     305.811
  O        3.488    -191.256     306.613
  C        5.659    -190.437     306.070
  O        6.577    -190.290     304.993
  C        4.722    -189.242     306.162
  O        4.305    -188.848     304.841
  C        3.535    -189.838     306.938
  N        0.927    -189.210     311.246
  C        0.478    -189.320     309.941
  N       -0.861    -189.236     309.761
  N        1.262    -189.484     308.913
  C        2.576    -189.536     309.242
  C        3.143    -189.440     310.495
  C        2.262    -189.268     311.628
  O        2.611    -189.190     312.806
  N        4.510    -189.550     310.434
  C        4.775    -189.683     309.149
  N        3.629    -189.678     308.380
  O        4.023    -193.521     303.796
  O        2.902    -195.614     304.743
  H        3.587    -188.200     304.951
  H        4.457    -194.239     303.291
  H        0.279    -189.075     312.004
  H        5.762    -189.798     308.723
  H        2.576    -189.396     306.628
  H        5.188    -188.374     306.625
  H       -1.519    -189.063     310.505
  H        6.176    -190.572     307.029
  H       -1.216    -189.345     308.817
  H        4.339    -191.563     304.758
  H        5.836    -193.304     305.335
  H        5.752    -192.932     307.082
  P        7.985    -189.579     305.306
  C        8.212    -187.097     304.567
  O        7.644    -188.017     305.494
  O        8.737    -189.632     303.895
  O        8.781    -190.208     306.399
  H        9.700    -189.571     304.035
  H        7.901    -186.104     304.814
  H        7.883    -187.338     303.578
  H        9.279    -187.158     304.613

 6  7  8  9  10  11  12  13  14  15  26  29  33  34 0
 6-311+G(2d,p)
 ****
 36  38  39  40  41 0
 6-311+G(2d,p)
 ****
 1  2  3  4  5  16  17  18  19  20  21  22  23  24  25 0
 3-21G
 ****
 27  28  30  31  32  35  37  42  43  44  45  46  47 0
 3-21G
 ****
 48  49 0
 3-21G
 ****


