%nproc=1
%NoSave
%Mem=1900MB
#P OB98/GEN NMR

erre ene a

0 1
  C      306.827     529.413    -133.409
  O      306.191     530.331    -134.282
  P      304.731     529.953    -134.824
  C      305.459     530.124    -137.328
  O      304.917     529.318    -136.288
  C      305.203     529.461    -138.679
  O      306.010     528.273    -138.833
  C      303.759     528.992    -138.861
  O      302.896     530.073    -139.199
  C      303.909     527.965    -139.974
  O      303.917     528.600    -141.265
  C      305.285     527.349    -139.657
  N      305.177     526.028    -139.040
  C      305.850     525.000    -139.678
  O      306.504     525.161    -140.715
  N      305.747     523.761    -139.104
  C      304.983     523.443    -138.007
  O      304.877     522.304    -137.576
  C      304.260     524.572    -137.393
  C      304.381     525.788    -137.935
  O      304.057     531.373    -135.118
  O      303.920     529.127    -133.891
  H      303.013     528.954    -141.408
  H      303.097     531.333    -134.908
  H      306.251     523.006    -139.535
  H      303.647     524.357    -136.530
  H      303.846     526.629    -137.505
  H      305.876     527.245    -140.582
  H      303.080     527.244    -139.990
  H      303.407     528.483    -137.953
  H      305.479     530.170    -139.477
  H      306.535     530.246    -137.178
  H      304.990     531.109    -137.289
  P      301.317     529.798    -139.109
  C      300.715     530.390    -141.577
  O      300.877     529.386    -140.586
  O      300.772     531.287    -138.899
  O      300.957     528.841    -138.016
  H      301.321     531.946    -139.358
  H      301.446     531.193    -141.456
  H      299.711     530.802    -141.513
  H      300.856     529.933    -142.569
  H      307.787     529.793    -133.130
  H      306.946     528.473    -133.905
  H      306.227     529.280    -132.533

 3  4  5  6  7  8  9  10  11  12  13  23  28  29  30  31  32 0
 6-311+G(2d,p)
 ****
 33  34 0
 6-311+G(2d,p)
 ****
 1  2  14  15  16  17  18  19  20  21  22  24  25  26 0
 3-21G
 ****
 27  35  36  37  38  39  40  41  42  43  44  45 0
 3-21G
 ****


