%nproc=1
%NoSave
%Mem=1900MB
#P OB98/GEN NMR

erre ene a

0 1
  C     -153.686    -349.634    -255.760
  O     -152.505    -348.839    -255.589
  P     -152.173    -348.284    -254.126
  C     -152.013    -345.730    -254.596
  O     -151.326    -346.933    -254.284
  C     -151.017    -344.627    -254.960
  O     -150.539    -344.765    -256.319
  C     -151.596    -343.222    -254.865
  O     -151.568    -342.731    -253.531
  C     -150.615    -342.441    -255.725
  O     -149.426    -342.147    -254.968
  C     -150.306    -343.438    -256.851
  N     -150.723    -340.893    -261.203
  C     -149.731    -340.854    -260.241
  N     -148.696    -340.023    -260.480
  N     -149.758    -341.568    -259.147
  C     -150.841    -342.369    -259.051
  C     -151.892    -342.492    -259.934
  C     -151.863    -341.686    -261.134
  O     -152.719    -341.665    -262.013
  N     -152.815    -343.400    -259.488
  C     -152.319    -343.843    -258.347
  N     -151.130    -343.233    -258.031
  O     -151.079    -349.324    -253.591
  O     -153.355    -348.206    -253.214
  H     -149.697    -341.556    -254.238
  H     -151.118    -349.375    -252.617
  H     -150.660    -340.315    -262.024
  H     -152.779    -344.596    -257.723
  H     -149.258    -343.389    -257.174
  H     -151.023    -341.481    -256.055
  H     -148.590    -339.483    -261.325
  H     -152.602    -343.177    -255.302
  H     -147.941    -340.009    -259.802
  H     -150.155    -344.707    -254.280
  H     -152.627    -345.411    -253.749
  H     -152.715    -345.924    -255.412
  P     -152.629    -341.597    -253.127
  C     -151.341    -339.934    -251.605
  O     -152.183    -341.066    -251.687
  O     -153.957    -342.441    -252.839
  O     -152.851    -340.551    -254.170
  H     -154.744    -341.912    -253.067
  H     -151.274    -339.621    -250.561
  H     -151.743    -339.106    -252.198
  H     -150.339    -340.187    -251.961
  H     -153.772    -349.929    -256.785
  H     -154.545    -349.061    -255.481
  H     -153.622    -350.505    -255.142

 3  4  5  6  7  8  9  10  11  12  23  26  30  31 0
 6-311+G(2d,p)
 ****
 33  35  36  37  38 0
 6-311+G(2d,p)
 ****
 1  2  13  14  15  16  17  18  19  20  21  22  24  25 0
 3-21G
 ****
 27  28  29  32  34  39  40  41  42  43  44  45  46  47  48  49 0
 3-21G
 ****


