%nproc=1
%NoSave
%Mem=1900MB
#P OB98/GEN NMR

erre ene a

0 1
  C     -398.240      38.824    -356.696
  O     -397.241      39.740    -357.085
  H     -398.118      38.596    -355.636
  H     -398.148      37.898    -357.268
  H     -399.235      39.260    -356.850
  P     -397.237      40.186    -358.629
  C     -395.191      38.681    -359.185
  O     -396.559      38.974    -359.441
  C     -394.772      37.402    -359.903
  O     -395.354      36.242    -359.265
  C     -395.182      37.342    -361.374
  O     -394.258      38.040    -362.190
  C     -395.173      35.841    -361.626
  O     -393.838      35.351    -361.865
  C     -395.729      35.293    -360.296
  N     -399.485      32.536    -362.237
  C     -398.122      32.434    -362.415
  N     -397.696      31.480    -363.281
  N     -397.245      33.190    -361.807
  C     -397.816      34.115    -361.000
  C     -399.156      34.309    -360.732
  C     -400.110      33.436    -361.386
  O     -401.330      33.437    -361.219
  N     -399.342      35.334    -359.841
  C     -398.125      35.790    -359.606
  N     -397.166      35.091    -360.300
  O     -396.118      41.334    -358.687
  O     -398.546      40.667    -359.157
  H     -393.880      34.396    -362.058
  H     -396.355      41.972    -359.383
  H     -400.109      31.910    -362.722
  H     -397.887      36.612    -358.945
  H     -395.271      34.330    -360.029
  H     -395.766      35.571    -362.503
  H     -398.303      31.107    -364.004
  H     -396.201      37.726    -361.510
  H     -396.698      31.410    -363.435
  H     -393.683      37.310    -359.805
  H     -395.053      38.546    -358.102
  H     -394.571      39.522    -359.521
  P     -394.826      38.787    -363.492
  C     -394.108      36.760    -364.969
  O     -395.161      37.631    -364.567
  O     -393.533      39.497    -364.111
  O     -395.939      39.756    -363.226
  H     -393.804      40.191    -364.740
  H     -394.482      36.053    -365.680
  H     -393.729      36.240    -364.114
  H     -393.322      37.333    -365.416

 6  7  8  9  10  11  12  13  14  15  26  29  33  34 0
 6-311+G(2d,p)
 ****
 36  38  39  40  41 0
 6-311+G(2d,p)
 ****
 1  2  3  4  5  16  17  18  19  20  21  22  23  24  25 0
 3-21G
 ****
 27  28  30  31  32  35  37  42  43  44  45  46  47 0
 3-21G
 ****
 48  49 0
 3-21G
 ****


