%nproc=1
%NoSave
%Mem=1900MB
#P OB98/GEN NMR

erre ene a

0 1
  C      172.297    -938.188    -517.073
  O      172.581    -939.267    -516.170
  P      173.387    -938.925    -514.823
  C      175.604    -939.222    -516.169
  O      174.873    -939.501    -514.972
  C      176.928    -939.990    -516.184
  O      177.728    -939.711    -515.024
  C      176.767    -941.505    -516.205
  O      176.515    -941.980    -517.516
  C      178.130    -941.958    -515.735
  O      179.074    -941.908    -516.825
  C      178.478    -940.896    -514.678
  N      179.403    -944.278    -510.948
  C      179.874    -944.180    -512.213
  N      179.569    -943.268    -513.158
  C      178.686    -942.369    -512.669
  C      178.123    -942.338    -511.399
  C      178.519    -943.353    -510.517
  N      178.045    -943.442    -509.220
  N      177.269    -941.271    -511.275
  C      177.319    -940.652    -512.437
  N      178.160    -941.288    -513.315
  O      172.725    -939.912    -513.750
  O      173.278    -937.497    -514.412
  H      178.752    -942.520    -517.510
  H      172.705    -939.468    -512.867
  H      180.578    -944.953    -512.514
  H      176.765    -939.761    -512.701
  H      179.539    -940.626    -514.702
  H      178.129    -942.987    -515.361
  H      175.990    -941.828    -515.498
  H      177.497    -939.671    -517.063
  H      175.784    -938.158    -516.259
  H      178.391    -944.194    -508.634
  H      177.402    -942.739    -508.890
  H      174.977    -939.499    -517.033
  P      175.024    -942.493    -517.845
  C      175.779    -944.992    -517.709
  O      175.208    -943.948    -518.500
  O      174.584    -941.573    -519.074
  O      174.077    -942.407    -516.696
  H      173.610    -941.441    -519.068
  H      175.536    -945.948    -518.178
  H      175.345    -944.988    -516.703
  H      176.851    -944.871    -517.661
  H      171.760    -938.563    -517.919
  H      173.215    -937.746    -517.401
  H      171.705    -937.450    -516.572

 3  4  5  6  7  8  9  10  11  12  22  25  29  30  31  32 0
 6-311+G(2d,p)
 ****
 33  36  37 0
 6-311+G(2d,p)
 ****
 1  2  13  14  15  16  17  18  19  20  21  23  24  26 0
 3-21G
 ****
 27  28  34  35  38  39  40  41  42  43  44  45  46  47  48 0
 3-21G
 ****


