%nproc=1
%NoSave
%Mem=1900MB
#P OB98/GEN NMR

erre ene a

0 1
  C     1322.408    -898.163     951.246
  O     1321.468    -897.533     952.092
  H     1322.525    -897.583     950.343
  H     1322.049    -899.163     950.975
  H     1323.377    -898.243     951.742
  P     1321.221    -898.103     953.568
  C     1323.383    -897.013     954.451
  O     1321.990    -897.113     954.587
  C     1323.908    -895.743     955.140
  O     1323.495    -894.563     954.402
  C     1323.343    -895.553     956.542
  O     1323.964    -896.423     957.482
  C     1323.618    -894.073     956.749
  O     1324.960    -893.833     957.188
  C     1323.373    -893.483     955.327
  N     1322.051    -892.813     955.231
  C     1322.033    -891.493     955.524
  O     1323.028    -890.833     955.851
  N     1320.788    -890.883     955.490
  C     1319.599    -891.563     955.306
  O     1318.513    -891.033     955.512
  C     1319.722    -892.983     954.908
  C     1320.929    -893.533     954.896
  O     1321.518    -899.553     953.753
  O     1319.674    -897.773     953.851
  H     1319.167    -898.593     953.727
  H     1325.108    -892.893     957.179
  H     1320.760    -889.923     955.749
  H     1318.800    -893.513     954.709
  H     1321.028    -894.613     954.662
  H     1324.166    -892.743     955.084
  H     1322.961    -893.623     957.506
  H     1322.255    -895.733     956.523
  H     1325.013    -895.763     955.172
  H     1323.644    -896.963     953.372
  H     1323.877    -897.903     954.855
  P     1323.097    -896.973     958.742
  C     1322.075    -898.933     957.430
  O     1322.883    -898.543     958.543
  O     1321.893    -896.203     959.054
  O     1324.178    -896.903     959.948
  H     1323.755    -896.443     960.693
  H     1322.003    -900.000     957.398
  H     1322.521    -898.578     956.524
  H     1321.097    -898.512     957.535

 6  7  8  9  10  11  12  13  14  15  16  27  31  32  33  34  35 0
 6-311+G(2d,p)
 ****
 36  37 0
 6-311+G(2d,p)
 ****
 1  2  3  4  5  17  18  19  20  21  22  23  24  25 0
 3-21G
 ****
 26  28  29  30  38  39  40  41  42  43  44  45 0
 3-21G
 ****


