%nproc=1
%NoSave
%Mem=1900MB
#P OB98/GEN NMR

erre ene a

0 1
  C       47.560    -126.818    -154.673
  O       46.872    -127.494    -155.705
  H       46.890    -126.076    -154.229
  H       48.434    -126.303    -155.080
  H       47.870    -127.524    -153.898
  P       47.684    -128.631    -156.496
  C       48.055    -127.385    -158.741
  O       48.639    -127.857    -157.534
  C       48.986    -127.657    -159.926
  O       50.156    -126.797    -159.812
  C       49.484    -129.110    -160.003
  O       49.551    -129.500    -161.379
  C       50.895    -129.018    -159.447
  O       51.719    -130.090    -159.891
  C       51.313    -127.643    -159.961
  N       56.130    -126.257    -160.440
  C       55.228    -126.712    -161.385
  N       55.677    -126.819    -162.654
  N       53.993    -127.037    -161.107
  C       53.671    -126.856    -159.803
  C       54.471    -126.426    -158.771
  C       55.844    -126.089    -159.087
  O       56.696    -125.705    -158.291
  N       53.780    -126.413    -157.584
  C       52.568    -126.834    -157.898
  N       52.452    -127.111    -159.234
  O       46.574    -129.294    -157.441
  O       48.374    -129.640    -155.641
  H       51.720    -130.082    -160.872
  H       46.777    -130.235    -157.605
  H       57.073    -126.030    -160.706
  H       51.746    -126.955    -157.204
  H       51.593    -127.662    -161.023
  H       50.871    -129.034    -158.350
  H       56.605    -126.557    -162.949
  H       48.861    -129.816    -159.449
  H       55.029    -127.138    -163.366
  H       48.471    -127.368    -160.849
  H       47.880    -126.307    -158.656
  H       47.098    -127.892    -158.900
  P       48.178    -129.904    -162.104
  C       48.495    -132.481    -162.097
  O       47.749    -131.372    -161.615
  O       48.629    -130.135    -163.623
  O       47.114    -128.860    -162.009
  H       48.299    -129.405    -164.179
  H       48.095    -133.385    -161.688
  H       49.518    -132.378    -161.802
  H       48.434    -132.515    -163.165

 6  7  8  9  10  11  12  13  14  15  26  29  33  34 0
 6-311+G(2d,p)
 ****
 36  38  39  40  41 0
 6-311+G(2d,p)
 ****
 1  2  3  4  5  16  17  18  19  20  21  22  23  24  25 0
 3-21G
 ****
 27  28  30  31  32  35  37  42  43  44  45  46  47 0
 3-21G
 ****
 48  49 0
 3-21G
 ****


