%nproc=1
%NoSave
%Mem=1900MB
#P OB98/GEN NMR

erre ene a

0 1
  C       75.200    -270.845      80.642
  O       75.448    -272.081      81.277
  H       74.971    -270.097      81.408
  H       74.341    -270.936      79.973
  H       76.078    -270.515      80.081
  P       76.002    -273.268      80.349
  C       73.587    -274.151      79.996
  O       74.792    -273.702      79.390
  C       72.526    -274.407      78.930
  O       72.133    -273.165      78.302
  C       72.978    -275.328      77.802
  O       72.863    -276.699      78.161
  C       71.975    -274.960      76.720
  O       70.706    -275.584      76.999
  C       71.867    -273.439      76.897
  N       73.612    -268.815      75.776
  C       72.624    -269.198      76.662
  N       72.005    -268.210      77.341
  N       72.269    -270.442      76.864
  C       72.964    -271.323      76.105
  C       73.964    -271.066      75.196
  C       74.352    -269.688      74.989
  O       75.236    -269.292      74.233
  N       74.440    -272.218      74.631
  C       73.718    -273.172      75.181
  N       72.801    -272.682      76.079
  O       76.131    -274.505      81.363
  O       77.300    -272.993      79.665
  H       70.451    -275.313      77.901
  H       76.914    -275.033      81.115
  H       73.837    -267.841      75.652
  H       73.817    -274.227      74.968
  H       70.864    -273.063      76.671
  H       72.283    -275.291      75.727
  H       72.195    -267.228      77.200
  H       73.989    -275.082      77.460
  H       71.301    -268.470      78.024
  H       71.637    -274.816      79.430
  H       73.226    -273.385      80.689
  H       73.791    -275.071      80.554
  P       74.082    -277.674      77.775
  C       72.919    -278.608      75.646
  O       74.003    -277.853      76.183
  O       73.598    -279.096      78.331
  O       75.408    -277.275      78.329
  H       74.369    -279.670      78.487
  H       73.000    -278.640      74.580
  H       71.993    -278.147      75.920
  H       72.950    -279.604      76.036

 6  7  8  9  10  11  12  13  14  15  26  29  33  34 0
 6-311+G(2d,p)
 ****
 36  38  39  40  41 0
 6-311+G(2d,p)
 ****
 1  2  3  4  5  16  17  18  19  20  21  22  23  24  25 0
 3-21G
 ****
 27  28  30  31  32  35  37  42  43  44  45  46  47 0
 3-21G
 ****
 48  49 0
 3-21G
 ****


