%nproc=1
%NoSave
%Mem=1900MB
#P OB98/GEN NMR

erre ene a

0 1
  C       -9.211       3.893     186.433
  O       -7.877       3.470     186.241
  H       -9.516       4.488     185.568
  H       -9.284       4.517     187.327
  H       -9.882       3.035     186.521
  P       -7.223       2.465     187.304
  C       -7.516      -0.025     187.907
  O       -8.068       1.104     187.238
  C       -8.624      -1.006     188.276
  O       -9.552      -0.391     189.197
  C       -9.462      -1.465     187.087
  O       -8.757      -2.413     186.310
  C      -10.692      -2.000     187.804
  O      -10.452      -3.311     188.334
  C      -10.853      -0.972     188.950
  N      -11.845       0.062     188.650
  C      -13.169      -0.257     188.936
  O      -13.516      -1.338     189.408
  N      -14.096       0.702     188.614
  C      -13.837       1.878     187.967
  O      -14.714       2.599     187.506
  C      -12.415       2.191     187.761
  C      -11.501       1.277     188.092
  O       -7.018       3.017     188.676
  O       -5.831       2.052     186.625
  H       -5.107       2.564     187.037
  H      -11.255      -3.561     188.833
  H      -15.064       0.460     188.773
  H      -12.165       3.144     187.309
  H      -10.448       1.477     187.920
  H      -11.156      -1.478     189.877
  H      -11.558      -2.075     187.143
  H       -9.756      -0.602     186.476
  H       -8.166      -1.867     188.783
  H       -7.017       0.321     188.820
  H       -6.774      -0.501     187.256
  P       -8.957      -2.500     184.725
  C       -8.695      -0.921     182.724
  O       -8.868      -1.013     184.131
  O      -10.155      -3.273     184.279
  O       -7.606      -3.182     184.191
  H       -7.839      -3.956     183.641
  H       -8.649       0.109     182.437
  H       -9.520      -1.392     182.232
  H       -7.786      -1.411     182.444

 6  7  8  9  10  11  12  13  14  15  16  27  31  32  33  34  35 0
 6-311+G(2d,p)
 ****
 36  37 0
 6-311+G(2d,p)
 ****
 1  2  3  4  5  17  18  19  20  21  22  23  24  25 0
 3-21G
 ****
 26  28  29  30  38  39  40  41  42  43  44  45 0
 3-21G
 ****


