%nproc=1
%NoSave
%Mem=1900MB
#P OB98/GEN NMR

erre ene a

0 1
  C     -177.045      90.698     450.136
  O     -177.379      91.606     451.168
  P     -176.719      93.065     451.220
  C     -175.211      92.260     453.157
  O     -175.260      92.851     451.854
  C     -173.774      91.937     453.554
  O     -173.239      90.880     452.717
  C     -172.806      93.100     453.413
  O     -172.961      94.011     454.480
  C     -171.464      92.373     453.384
  O     -171.017      92.066     454.713
  C     -171.819      91.079     452.614
  N     -171.378      91.125     451.225
  C     -170.218      90.409     450.922
  O     -169.612      89.808     451.811
  N     -169.739      90.424     449.629
  C     -170.366      91.118     448.725
  N     -169.846      91.101     447.465
  C     -171.576      91.912     449.003
  C     -172.022      91.877     450.265
  O     -177.550      94.124     451.865
  O     -176.398      93.372     449.674
  H     -170.143      91.633     454.615
  H     -177.215      93.580     449.165
  H     -172.050      92.488     448.224
  H     -172.899      92.435     450.564
  H     -171.350      90.209     453.096
  H     -170.680      92.970     452.909
  H     -172.969      93.602     452.443
  H     -173.780      91.577     454.598
  H     -168.997      90.570     447.324
  H     -175.802      91.337     453.133
  H     -170.226      91.632     446.697
  H     -175.666      92.947     453.876
  P     -172.693      95.575     454.248
  C     -170.415      95.530     455.440
  O     -171.107      95.804     454.227
  O     -173.455      96.497     455.139
  O     -173.100      95.802     452.710
  H     -173.629      96.624     452.636
  H     -169.356      95.399     455.222
  H     -170.803      94.616     455.913
  H     -170.533      96.370     456.128
  H     -177.586      89.785     450.275
  H     -175.994      90.498     450.163
  H     -177.302      91.124     449.189

 3  4  5  6  7  8  9  10  11  12  13  23  27  28  29  30  32 0
 6-311+G(2d,p)
 ****
 34  35 0
 6-311+G(2d,p)
 ****
 1  2  14  15  16  17  18  19  20  21  22  24  25  26 0
 3-21G
 ****
 31  33  36  37  38  39  40  41  42  43  44  45  46 0
 3-21G
 ****


