%nproc=1
%NoSave
%Mem=1900MB
#P OB98/GEN NMR

erre ene a

0 1
  C      -61.824    -469.275    -404.841
  O      -61.588    -467.990    -404.306
  H      -61.879    -469.197    -405.929
  H      -62.776    -469.666    -404.472
  H      -61.014    -469.962    -404.581
  P      -61.282    -467.850    -402.740
  C      -58.792    -467.541    -403.352
  O      -59.737    -468.217    -402.535
  C      -57.407    -467.544    -402.697
  O      -57.438    -466.655    -401.540
  C      -56.947    -468.928    -402.195
  O      -55.516    -468.951    -402.285
  C      -57.411    -468.874    -400.750
  O      -56.879    -469.915    -399.972
  C      -56.995    -467.436    -400.409
  N      -57.549    -466.903    -399.170
  C      -56.664    -466.628    -398.132
  O      -55.447    -466.796    -398.189
  N      -57.227    -466.136    -396.983
  C      -58.553    -465.889    -396.783
  O      -58.997    -465.420    -395.742
  C      -59.441    -466.206    -397.910
  C      -58.906    -466.687    -399.036
  O      -62.227    -468.559    -401.828
  O      -61.303    -466.267    -402.492
  H      -62.152    -466.011    -402.084
  H      -55.899    -469.840    -399.967
  H      -56.601    -465.927    -396.224
  H      -60.499    -466.033    -397.781
  H      -59.535    -466.921    -399.890
  H      -55.904    -467.362    -400.374
  H      -58.495    -468.989    -400.703
  H      -57.365    -469.754    -402.774
  H      -56.682    -467.119    -403.406
  H      -59.136    -466.510    -403.487
  H      -58.748    -468.032    -404.331
  P      -54.703    -470.011    -403.178
  C      -55.493    -468.860    -405.358
  O      -55.398    -470.076    -404.626
  O      -54.537    -471.349    -402.531
  O      -53.285    -469.326    -403.461
  H      -52.614    -470.016    -403.616
  H      -55.973    -469.045    -406.296
  H      -54.512    -468.470    -405.530
  H      -56.066    -468.151    -404.798

 6  7  8  9  10  11  12  13  14  15  16  27  31  32  33  34  35 0
 6-311+G(2d,p)
 ****
 36  37 0
 6-311+G(2d,p)
 ****
 1  2  3  4  5  17  18  19  20  21  22  23  24  25 0
 3-21G
 ****
 26  28  29  30  38  39  40  41  42  43  44  45 0
 3-21G
 ****


