%nproc=1
%NoSave
%Mem=1900MB
#P OB98/GEN NMR

erre ene a

0 1
  C      -64.772      31.870      28.491
  O      -63.823      32.183      29.506
  P      -64.282      32.000      31.031
  C      -63.652      29.524      31.628
  O      -63.327      30.900      31.700
  C      -62.539      28.660      32.249
  O      -61.276      29.029      31.637
  C      -62.331      28.844      33.749
  O      -61.603      27.720      34.252
  C      -61.451      30.074      33.790
  O      -60.787      30.205      35.044
  C      -60.534      29.865      32.564
  N      -60.134      31.126      31.901
  C      -59.398      32.055      32.633
  O      -59.059      31.893      33.805
  N      -59.087      33.221      31.987
  C      -59.393      33.527      30.696
  O      -59.166      34.621      30.194
  C      -60.044      32.458      29.928
  C      -60.389      31.332      30.555
  O      -65.699      31.270      30.911
  O      -64.370      33.281      31.789
  H      -60.190      30.984      34.965
  H      -66.419      31.900      31.102
  H      -58.613      33.931      32.527
  H      -60.244      32.639      28.878
  H      -60.890      30.539      30.005
  H      -59.611      29.340      32.845
  H      -62.063      30.970      33.651
  H      -63.252      28.979      34.323
  H      -62.726      27.606      32.011
  H      -63.821      29.235      30.587
  H      -64.593      29.341      32.160
  P      -62.068      27.089      35.651
  C      -63.990      25.687      34.679
  O      -62.723      25.666      35.309
  O      -62.877      27.977      36.535
  O      -60.677      26.676      36.336
  H      -60.804      26.561      37.295
  H      -64.088      24.793      34.056
  H      -64.112      26.574      34.051
  H      -64.772      25.674      35.444
  H      -64.334      32.037      27.529
  H      -65.634      32.494      28.604
  H      -65.062      30.844      28.578

 3  4  5  6  7  8  9  10  11  12  13  23  28  29  30  31  32 0
 6-311+G(2d,p)
 ****
 33  34 0
 6-311+G(2d,p)
 ****
 1  2  14  15  16  17  18  19  20  21  22  24  25  26  27 0
 3-21G
 ****
 35  36  37  38  39  40  41  42  43  44  45 0
 3-21G
 ****


