%nproc=1
%NoSave
%Mem=1900MB
#P OB98/GEN NMR

erre ene a

0 1
  C      -72.281     373.008     561.889
  O      -72.080     373.755     560.688
  P      -73.373     373.941     559.748
  C      -75.679     374.830     560.546
  O      -74.295     375.092     560.389
  C      -76.404     376.050     561.124
  O      -75.971     376.357     562.464
  C      -76.182     377.319     560.315
  O      -77.021     377.322     559.173
  C      -76.538     378.402     561.329
  O      -77.967     378.631     561.366
  C      -76.058     377.794     562.656
  N      -73.632     381.743     564.711
  C      -74.926     381.656     564.224
  N      -75.682     382.767     564.325
  N      -75.419     380.570     563.693
  C      -74.545     379.534     563.661
  C      -73.255     379.497     564.134
  C      -72.718     380.708     564.719
  O      -71.583     380.833     565.177
  N      -72.700     378.253     563.982
  C      -73.614     377.580     563.297
  N      -74.777     378.291     563.138
  O      -74.201     372.596     559.991
  O      -73.033     374.132     558.302
  H      -78.415     377.793     561.569
  H      -74.179     372.041     559.187
  H      -73.298     382.615     565.101
  H      -73.497     376.567     562.933
  H      -76.784     377.971     563.465
  H      -76.083     379.365     561.079
  H      -75.369     383.635     564.726
  H      -75.122     377.404     560.026
  H      -76.637     382.715     563.982
  H      -77.476     375.813     561.153
  H      -75.827     373.970     561.205
  H      -76.097     374.551     559.571
  P      -76.340     377.112     557.736
  C      -75.814     374.638     557.119
  O      -76.789     375.667     557.205
  O      -74.785     376.927     558.097
  O      -76.547     378.236     556.775
  H      -74.249     377.443     557.468
  H      -76.303     373.672     557.267
  H      -75.030     374.762     557.874
  H      -75.362     374.664     556.121
  H      -71.360     372.949     562.431
  H      -72.614     372.021     561.644
  H      -73.019     373.494     562.492

 3  4  5  6  7  8  9  10  11  12  23  26  30  31 0
 6-311+G(2d,p)
 ****
 33  35  36  37  38 0
 6-311+G(2d,p)
 ****
 1  2  13  14  15  16  17  18  19  20  21  22  24  25 0
 3-21G
 ****
 27  28  29  32  34  39  40  41  42  43  44  45  46  47  48  49 0
 3-21G
 ****


