%nproc=1
%NoSave
%Mem=1900MB
#P OB98/GEN NMR

erre ene a

0 1
  C     -373.381     -23.130      78.356
  O     -374.263     -22.748      77.323
  P     -375.633     -23.537      77.065
  C     -376.989     -21.731      78.306
  O     -376.641     -23.110      78.241
  C     -378.237     -21.535      79.171
  O     -378.481     -20.102      79.327
  C     -379.501     -22.166      78.550
  O     -380.213     -23.046      79.421
  C     -380.279     -20.950      78.069
  O     -381.661     -21.193      77.884
  C     -379.894     -19.902      79.114
  N     -380.201     -18.540      78.684
  C     -381.538     -18.146      78.730
  O     -382.457     -18.857      79.119
  N     -381.806     -16.895      78.249
  C     -380.921     -16.061      77.632
  O     -381.255     -14.996      77.138
  C     -379.533     -16.549      77.576
  C     -379.232     -17.733      78.113
  O     -375.496     -25.010      76.878
  O     -376.257     -22.775      75.801
  H     -381.750     -21.981      77.314
  H     -376.427     -21.827      75.940
  H     -382.772     -16.593      78.276
  H     -378.811     -15.916      77.084
  H     -378.221     -18.121      78.084
  H     -380.394     -20.079      80.067
  H     -379.872     -20.662      77.092
  H     -379.245     -22.796      77.690
  H     -378.030     -21.960      80.157
  H     -377.194     -21.371      77.294
  H     -376.142     -21.152      78.695
  P     -380.817     -24.467      79.000
  C     -378.721     -25.635      80.010
  O     -379.609     -25.516      78.915
  O     -381.721     -24.449      77.813
  O     -381.613     -24.935      80.310
  H     -382.358     -25.508      80.051
  H     -377.746     -25.954      79.634
  H     -379.098     -26.389      80.699
  H     -378.599     -24.680      80.537
  H     -372.532     -22.479      78.359
  H     -373.058     -24.137      78.195
  H     -373.884     -23.063      79.298

 3  4  5  6  7  8  9  10  11  12  13  23  28  29  30  31  32 0
 6-311+G(2d,p)
 ****
 33  34 0
 6-311+G(2d,p)
 ****
 1  2  14  15  16  17  18  19  20  21  22  24  25  26  27 0
 3-21G
 ****
 35  36  37  38  39  40  41  42  43  44  45 0
 3-21G
 ****


