%nproc=1
%NoSave
%Mem=1900MB
#P OB98/GEN NMR

erre ene a

0 1
  C      102.105    -164.603      86.495
  O      100.763    -164.353      86.855
  H      102.737    -164.456      87.375
  H      102.420    -163.899      85.722
  H      102.234    -165.628      86.140
  P       99.595    -164.763      85.837
  C       97.929    -165.485      87.672
  O       98.219    -164.556      86.635
  C       98.407    -164.937      89.018
  O       97.680    -163.700      89.292
  C       98.154    -165.899      90.196
  O       99.216    -165.748      91.143
  C       96.865    -165.345      90.766
  O       96.655    -165.757      92.093
  C       97.089    -163.844      90.595
  N       95.843    -163.097      90.729
  C       95.327    -162.960      92.013
  O       95.857    -163.436      93.015
  N       94.128    -162.310      92.111
  C       93.358    -161.894      91.064
  O       92.253    -161.390      91.206
  C       93.929    -162.115      89.725
  C       95.128    -162.690      89.620
  O       99.739    -166.094      85.179
  O       99.553    -163.561      84.780
  H       97.465    -165.617      92.618
  H       99.126    -163.853      83.952
  H       93.746    -162.193      93.036
  H       93.336    -161.813      88.873
  H       95.571    -162.886      88.650
  H       97.813    -163.470      91.330
  H       96.011    -165.684      90.171
  H       98.072    -166.945      89.888
  H       99.468    -164.675      88.943
  H       98.448    -166.423      87.444
  H       96.851    -165.672      87.702
  P      100.381    -166.843      91.291
  C      102.176    -165.636      92.674
  O      101.170    -166.644      92.678
  O      101.274    -166.951      90.096
  O       99.598    -168.224      91.509
  H       99.995    -168.910      90.940
  H      102.636    -165.587      93.639
  H      101.732    -164.690      92.442
  H      102.916    -165.873      91.938

 6  7  8  9  10  11  12  13  14  15  16  26  31  32  33  34  35 0
 6-311+G(2d,p)
 ****
 36  37 0
 6-311+G(2d,p)
 ****
 1  2  3  4  5  17  18  19  20  21  22  23  24  25 0
 3-21G
 ****
 27  28  29  30  38  39  40  41  42  43  44  45 0
 3-21G
 ****


