%nproc=1
%NoSave
%Mem=1900MB
#P OB98/GEN NMR

erre ene a

0 1
  C      -96.020     140.683     -78.943
  O      -95.536     139.769     -79.911
  P      -95.671     138.203     -79.567
  C      -93.449     138.020     -78.206
  O      -94.867     137.972     -78.202
  C      -92.915     137.589     -76.840
  O      -93.339     138.515     -75.820
  C      -93.391     136.213     -76.389
  O      -92.609     135.197     -76.987
  C      -93.220     136.314     -74.877
  O      -91.849     136.081     -74.499
  C      -93.626     137.770     -74.605
  N      -97.147     136.650     -71.157
  C      -95.860     136.169     -71.300
  N      -95.437     135.297     -70.360
  N      -95.059     136.513     -72.273
  C      -95.620     137.384     -73.146
  C      -96.888     137.919     -73.120
  C      -97.743     137.569     -72.010
  O      -98.853     138.041     -71.784
  N      -97.105     138.747     -74.190
  C      -95.961     138.735     -74.842
  N      -95.020     137.941     -74.240
  O      -94.759     137.509     -80.681
  O      -97.070     137.675     -79.555
  H      -91.606     135.165     -74.722
  H      -95.307     137.174     -81.417
  H      -97.711     136.362     -70.377
  H      -95.757     139.300     -75.740
  H      -93.029     138.221     -73.804
  H      -93.821     135.573     -74.344
  H      -96.006     134.967     -69.597
  H      -94.452     136.078     -76.630
  H      -94.497     134.930     -70.452
  H      -91.819     137.620     -76.883
  H      -93.125     139.044     -78.413
  H      -93.071     137.362     -78.995
  P      -93.362     133.857     -77.444
  C      -93.119     132.559     -75.209
  O      -93.988     133.193     -76.130
  O      -92.159     132.875     -77.836
  O      -94.308     134.036     -78.584
  H      -92.423     132.321     -78.596
  H      -93.551     132.639     -74.209
  H      -92.126     133.017     -75.206
  H      -93.027     131.503     -75.471
  H      -95.872     141.684     -79.292
  H      -95.490     140.543     -78.024
  H      -97.064     140.512     -78.782

 3  4  5  6  7  8  9  10  11  12  23  26  30  31 0
 6-311+G(2d,p)
 ****
 33  35  36  37  38 0
 6-311+G(2d,p)
 ****
 1  2  13  14  15  16  17  18  19  20  21  22  24  25 0
 3-21G
 ****
 27  28  29  32  34  39  40  41  42  43  44  45  46  47  48  49 0
 3-21G
 ****


