%nproc=1
%NoSave
%Mem=1900MB
#P OB98/GEN NMR

erre ene a

0 1
  C     -119.422     172.331     -37.070
  O     -119.330     172.716     -35.713
  H     -118.649     171.590     -37.278
  H     -119.266     173.197     -37.720
  H     -120.403     171.889     -37.273
  P     -120.401     173.794     -35.197
  C     -118.602     175.672     -35.098
  O     -119.844     175.233     -35.637
  C     -117.733     176.241     -36.214
  O     -117.666     175.298     -37.310
  C     -118.267     177.531     -36.820
  O     -117.995     178.660     -36.011
  C     -117.544     177.550     -38.156
  O     -116.220     178.092     -38.027
  C     -117.474     176.064     -38.522
  N     -118.204     174.609     -43.362
  C     -117.078     174.814     -42.643
  N     -116.971     175.190     -41.349
  C     -118.185     175.326     -40.791
  C     -119.418     175.147     -41.399
  C     -119.401     174.764     -42.750
  N     -120.544     174.580     -43.493
  N     -120.440     175.415     -40.512
  C     -119.841     175.745     -39.386
  N     -118.478     175.699     -39.506
  O     -120.194     173.776     -33.609
  O     -121.816     173.514     -35.577
  H     -116.310     178.907     -37.494
  H     -120.891     173.229     -33.197
  H     -116.144     174.668     -43.175
  H     -120.339     176.026     -38.467
  H     -116.499     175.781     -38.935
  H     -118.081     178.160     -38.881
  H     -119.345     177.440     -37.007
  H     -116.715     176.385     -35.825
  H     -118.092     174.824     -34.633
  H     -118.798     176.431     -34.335
  H     -120.457     174.376     -44.475
  H     -121.440     174.807     -43.077
  P     -119.245     179.515     -35.482
  C     -118.099     181.722     -36.269
  O     -119.258     180.895     -36.295
  O     -118.811     179.950     -34.004
  O     -120.543     178.782     -35.487
  H     -119.592     179.960     -33.414
  H     -118.273     182.598     -36.858
  H     -117.267     181.182     -36.670
  H     -117.887     182.007     -35.260

 6  7  8  9  10  11  12  13  14  15  25  28  32  33  34  35 0
 6-311+G(2d,p)
 ****
 36  37  40 0
 6-311+G(2d,p)
 ****
 1  2  3  4  5  16  17  18  19  20  21  22  23  24 0
 3-21G
 ****
 26  27  29  30  31  38  39 41  42  43  44  45  46  47  48 0
 3-21G
 ****


