%nproc=1
%NoSave
%Mem=1900MB
#P OB98/GEN NMR

erre ene a

0 1
  C        9.840    -306.943    -149.728
  O       10.216    -305.626    -150.080
  H       10.633    -307.375    -149.107
  H        9.725    -307.554    -150.623
  H        8.909    -306.940    -149.149
  P        9.166    -304.706    -150.872
  C       11.002    -303.822    -152.456
  O        9.989    -303.488    -151.519
  C       11.924    -302.626    -152.710
  O       11.106    -301.441    -152.899
  C       12.899    -302.338    -151.561
  O       14.149    -301.905    -152.099
  C       12.238    -301.200    -150.812
  O       13.180    -300.397    -150.101
  C       11.538    -300.448    -151.939
  N       10.126    -296.088    -149.806
  C       11.357    -296.499    -150.250
  N       12.384    -295.635    -150.089
  N       11.588    -297.663    -150.805
  C       10.463    -298.425    -150.930
  C        9.179    -298.126    -150.525
  C        8.954    -296.841    -149.893
  O        7.884    -296.431    -149.463
  N        8.323    -299.163    -150.801
  C        9.082    -300.083    -151.370
  N       10.394    -299.688    -151.450
  O        7.964    -304.295    -150.076
  O        8.755    -305.581    -152.147
  H       13.952    -300.273    -150.695
  H        7.859    -305.960    -152.040
  H       10.008    -295.186    -149.377
  H        8.740    -301.040    -151.728
  H       12.200    -299.737    -152.449
  H       11.514    -301.598    -150.090
  H       12.279    -294.710    -149.689
  H       13.052    -303.214    -150.926
  H       13.301    -295.897    -150.436
  H       12.464    -302.796    -153.650
  H       10.521    -304.123    -153.396
  H       11.585    -304.672    -152.070
  P       14.996    -302.914    -153.021
  C       16.924    -303.554    -151.451
  O       16.542    -302.825    -152.608
  O       14.721    -302.825    -154.493
  O       14.568    -304.359    -152.450
  H       14.545    -304.998    -153.195
  H       17.971    -303.420    -151.275
  H       16.717    -304.593    -151.600
  H       16.372    -303.198    -150.607

 6  7  8  9  10  11  12  13  14  15  26  29  33  34 0
 6-311+G(2d,p)
 ****
 36  38  39  40  41 0
 6-311+G(2d,p)
 ****
 1  2  3  4  5  16  17  18  19  20  21  22  23  24  25 0
 3-21G
 ****
 27  28  30  31  32  35  37  42  43  44  45  46  47 0
 3-21G
 ****
 48  49 0
 3-21G
 ****


