%nproc=1
%NoSave
%Mem=1900MB
#P OB98/GEN NMR

erre ene a

0 1
  C       80.219      -2.361      76.523
  O       81.232      -3.169      77.141
  P       82.127      -4.203      76.303
  C       83.900      -5.983      76.879
  O       82.722      -5.304      77.309
  C       84.466      -6.887      77.980
  O       85.049      -6.099      79.038
  C       83.436      -7.793      78.647
  O       83.154      -8.915      77.830
  C       84.133      -8.115      79.966
  O       85.098      -9.166      79.779
  C       84.838      -6.791      80.285
  N       83.582      -6.076      85.190
  C       84.380      -6.982      84.585
  N       84.663      -7.112      83.270
  C       84.038      -6.157      82.558
  C       83.189      -5.169      83.035
  C       82.963      -5.148      84.423
  N       82.138      -4.234      85.035
  N       82.717      -4.388      82.002
  C       83.287      -4.885      80.919
  N       84.092      -5.952      81.204
  O       83.151      -3.560      75.426
  O       81.073      -5.035      75.428
  H       84.636      -9.915      79.361
  H       81.503      -5.348      74.609
  H       84.860      -7.702      85.244
  H       83.148      -4.506      79.916
  H       85.829      -6.956      80.722
  H       83.438      -8.444      80.742
  H       82.518      -7.230      78.851
  H       85.272      -7.486      77.538
  H       84.649      -5.234      76.599
  H       82.000      -4.305      86.032
  H       81.636      -3.567      84.465
  H       83.652      -6.583      75.995
  P       81.800      -8.964      76.976
  C       80.864     -10.430      75.088
  O       81.837     -10.314      76.110
  O       81.475      -7.725      76.210
  O       80.673      -9.282      78.068
  H       79.828      -8.891      77.785
  H       79.910     -10.739      75.529
  H       81.191     -11.193      74.378
  H       80.733      -9.481      74.559
  H       79.750      -1.749      77.264
  H       79.487      -2.994      76.067
  H       80.666      -1.738      75.777

 3  4  5  6  7  8  9  10  11  12  22  25  29  30  31  32 0
 6-311+G(2d,p)
 ****
 33  36  37 0
 6-311+G(2d,p)
 ****
 1  2  13  14  15  16  17  18  19  20  21  23  24  26 0
 3-21G
 ****
 27  28  34  35  38  39  40  41  42  43  44  45  46  47  48 0
 3-21G
 ****


