%nproc=1
%NoSave
%Mem=1900MB
#P OB98/GEN NMR

erre ene a

0 1
  C      385.477     268.168     555.686
  O      386.487     267.185     555.907
  P      387.515     267.406     557.116
  C      389.112     269.255     556.091
  O      388.910     267.937     556.550
  C      390.587     269.450     555.721
  O      391.411     269.410     556.906
  C      391.124     268.377     554.774
  O      390.878     268.692     553.419
  C      392.593     268.342     555.139
  O      393.281     269.448     554.531
  C      392.527     268.511     556.674
  N      392.348     267.302     557.504
  C      393.095     266.156     557.239
  O      393.914     266.066     556.331
  N      392.868     265.088     558.068
  C      392.131     265.097     559.214
  O      392.015     264.122     559.952
  C      391.484     266.374     559.534
  C      391.603     267.391     558.676
  O      387.843     265.917     557.607
  O      386.992     268.260     558.228
  H      394.206     269.419     554.835
  H      387.516     265.786     558.516
  H      393.354     264.231     557.844
  H      390.921     266.436     560.455
  H      391.126     268.338     558.909
  H      393.436     269.011     557.039
  H      393.075     267.438     554.754
  H      390.690     267.398     555.030
  H      390.703     270.437     555.261
  H      388.815     269.981     556.854
  H      388.472     269.439     555.215
  P      389.518     268.211     552.721
  C      390.652     266.780     550.910
  O      389.894     267.951     551.176
  O      388.320     269.070     552.948
  O      389.311     266.726     553.282
  H      388.701     266.728     554.056
  H      390.706     266.634     549.834
  H      390.180     265.910     551.372
  H      391.670     266.905     551.295
  H      384.875     267.879     554.850
  H      385.937     269.113     555.485
  H      384.861     268.249     556.557

 3  4  5  6  7  8  9  10  11  12  13  23  28  29  30  31  32 0
 6-311+G(2d,p)
 ****
 33  34 0
 6-311+G(2d,p)
 ****
 1  2  14  15  16  17  18  19  20  21  22  24  25  26  27 0
 3-21G
 ****
 35  36  37  38  39  40  41  42  43  44  45 0
 3-21G
 ****


