%nproc=1
%NoSave
%Mem=1900MB
#P OB98/GEN NMR

erre ene a

0 1
  C      -82.833     217.146    -219.708
  O      -83.344     218.071    -220.659
  P      -82.868     219.602    -220.539
  C      -85.287     220.321    -219.927
  O      -83.916     220.302    -219.546
  C      -86.001     221.515    -219.297
  O      -85.869     221.471    -217.861
  C      -85.460     222.871    -219.718
  O      -85.982     223.291    -220.971
  C      -85.992     223.754    -218.601
  O      -87.382     224.058    -218.840
  C      -85.850     222.842    -217.378
  N      -83.248     226.253    -214.597
  C      -84.411     226.348    -215.279
  N      -85.036     225.395    -216.002
  C      -84.310     224.261    -216.020
  C      -83.091     224.035    -215.406
  C      -82.554     225.091    -214.655
  N      -81.382     224.986    -213.942
  N      -82.658     222.749    -215.654
  C      -83.603     222.205    -216.394
  N      -84.631     223.078    -216.633
  O      -83.249     220.213    -221.971
  O      -81.424     219.790    -220.213
  H      -87.573     224.892    -218.367
  H      -82.699     220.999    -222.154
  H      -84.911     227.310    -215.221
  H      -83.591     221.192    -216.766
  H      -86.689     222.948    -216.681
  H      -85.464     224.713    -218.527
  H      -84.363     222.886    -219.707
  H      -87.071     221.433    -219.537
  H      -85.765     219.400    -219.589
  H      -81.162     225.719    -213.284
  H      -80.976     224.064    -213.824
  H      -85.354     220.372    -221.021
  P      -84.916     223.797    -222.062
  C      -84.462     226.350    -221.910
  O      -84.191     225.060    -221.396
  O      -85.842     224.435    -223.204
  O      -84.026     222.721    -222.590
  H      -85.389     224.414    -224.063
  H      -84.151     227.094    -221.171
  H      -85.529     226.481    -222.108
  H      -83.890     226.508    -222.829
  H      -83.231     216.173    -219.907
  H      -83.117     217.453    -218.723
  H      -81.766     217.116    -219.778

 3  4  5  6  7  8  9  10  11  12  22  25  29  30  31  32 0
 6-311+G(2d,p)
 ****
 33  36  37 0
 6-311+G(2d,p)
 ****
 1  2  13  14  15  16  17  18  19  20  21  23  24  26 0
 3-21G
 ****
 27  28  34  35  38  39  40  41  42  43  44  45  46  47  48 0
 3-21G
 ****


