%nproc=1
%NoSave
%Mem=1900MB
#P OB98/GEN NMR

erre ene a

0 1
  C       80.005     207.613    -761.712
  O       78.821     207.715    -760.943
  P       77.601     206.747    -761.328
  C       75.889     208.294    -760.119
  O       76.274     207.646    -761.323
  C       74.945     209.450    -760.418
  O       75.683     210.572    -760.940
  C       73.880     209.149    -761.465
  O       72.839     208.344    -760.918
  C       73.451     210.560    -761.849
  O       72.561     211.096    -760.863
  C       74.791     211.316    -761.819
  N       74.298     213.287    -766.518
  C       73.487     213.319    -765.437
  N       73.680     212.756    -764.226
  C       74.852     212.097    -764.194
  C       75.768     211.956    -765.222
  C       75.459     212.595    -766.433
  N       76.283     212.555    -767.539
  N       76.845     211.197    -764.820
  C       76.591     210.892    -763.569
  N       75.401     211.428    -763.136
  O       77.431     205.831    -760.028
  O       77.815     205.929    -762.571
  H       72.401     212.030    -761.094
  H       77.151     204.926    -760.271
  H       72.562     213.886    -765.552
  H       77.228     210.298    -762.927
  H       74.697     212.329    -761.412
  H       72.940     210.605    -762.819
  H       74.326     208.640    -762.331
  H       74.476     209.767    -759.474
  H       76.780     208.685    -759.615
  H       75.916     212.904    -768.400
  H       77.075     211.922    -767.512
  H       75.412     207.559    -759.460
  P       72.664     206.866    -761.510
  C       70.134     207.205    -761.249
  O       71.186     206.876    -762.135
  O       72.478     205.998    -760.178
  O       73.756     206.419    -762.427
  H       71.819     206.392    -759.578
  H       69.192     207.218    -761.808
  H       70.304     208.186    -760.796
  H       70.052     206.443    -760.464
  H       80.729     208.312    -761.347
  H       79.785     207.830    -762.736
  H       80.397     206.620    -761.634

 3  4  5  6  7  8  9  10  11  12  22  25  29  30  31  32 0
 6-311+G(2d,p)
 ****
 33  36  37 0
 6-311+G(2d,p)
 ****
 1  2  13  14  15  16  17  18  19  20  21  23  24  26 0
 3-21G
 ****
 27  28  34  35  38  39  40  41  42  43  44  45  46  47  48 0
 3-21G
 ****


