%nproc=1
%NoSave
%Mem=1900MB
#P OB98/GEN NMR

erre ene a

0 1
  C      -21.288    -230.707     531.470
  O      -20.550    -230.878     530.279
  H      -21.482    -231.687     531.906
  H      -22.247    -230.231     531.236
  H      -20.739    -230.096     532.193
  P      -19.764    -229.625     529.674
  C      -20.150    -228.022     527.691
  O      -20.755    -228.859     528.661
  C      -21.066    -227.805     526.477
  O      -21.298    -229.066     525.807
  C      -22.439    -227.274     526.874
  O      -22.525    -225.872     527.041
  C      -23.304    -227.738     525.691
  O      -23.246    -226.791     524.612
  C      -22.645    -229.057     525.292
  N      -26.292    -232.538     524.431
  C      -25.933    -231.450     523.658
  N      -26.669    -231.230     522.545
  N      -24.943    -230.646     523.966
  C      -24.354    -230.939     525.149
  C      -24.638    -231.985     526.012
  C      -25.695    -232.900     525.629
  O      -26.063    -233.873     526.283
  N      -23.829    -231.950     527.117
  C      -23.111    -230.855     526.972
  N      -23.375    -230.222     525.776
  O      -18.699    -230.294     528.673
  O      -19.073    -228.745     530.680
  H      -23.828    -227.106     523.893
  H      -17.930    -229.710     528.568
  H      -27.043    -233.143     524.128
  H      -22.366    -230.492     527.676
  H      -22.571    -229.156     524.195
  H      -24.354    -227.827     525.973
  H      -27.506    -231.749     522.335
  H      -22.797    -227.778     527.778
  H      -26.613    -230.307     522.110
  H      -20.568    -227.149     525.755
  H      -19.226    -228.501     527.379
  H      -19.881    -227.054     528.134
  P      -23.916    -225.194     527.458
  C      -25.579    -223.599     526.227
  O      -24.544    -224.561     526.118
  O      -23.448    -223.913     528.300
  O      -24.833    -226.070     528.236
  H      -23.473    -224.121     529.258
  H      -25.879    -223.285     525.249
  H      -25.224    -222.754     526.780
  H      -26.416    -224.031     526.735

 6  7  8  9  10  11  12  13  14  15  26  29  33  34 0
 6-311+G(2d,p)
 ****
 36  38  39  40  41 0
 6-311+G(2d,p)
 ****
 1  2  3  4  5  16  17  18  19  20  21  22  23  24  25 0
 3-21G
 ****
 27  28  30  31  32  35  37  42  43  44  45  46  47 0
 3-21G
 ****
 48  49 0
 3-21G
 ****


