%nproc=1
%NoSave
%Mem=1900MB
#P OB98/GEN NMR

erre ene a

0 1
  C     -765.585    -867.189     334.298
  O     -765.910    -868.082     333.235
  P     -766.634    -869.493     333.508
  C     -764.731    -870.266     331.970
  O     -766.069    -870.471     332.405
  C     -764.415    -871.181     330.787
  O     -764.551    -872.556     331.204
  C     -765.303    -870.997     329.576
  O     -764.958    -869.828     328.851
  C     -765.082    -872.318     328.855
  O     -763.864    -872.300     328.113
  C     -764.955    -873.331     330.016
  N     -766.185    -874.048     330.286
  C     -766.673    -874.843     329.255
  O     -766.065    -874.940     328.163
  N     -767.819    -875.585     329.446
  C     -768.460    -875.506     330.558
  N     -769.568    -876.279     330.739
  C     -768.010    -874.616     331.680
  C     -766.889    -873.938     331.475
  O     -768.128    -869.411     333.585
  O     -765.951    -870.024     334.840
  H     -763.683    -873.203     327.820
  H     -766.400    -869.709     335.667
  H     -768.599    -874.586     332.602
  H     -766.479    -873.314     332.249
  H     -764.151    -874.042     329.824
  H     -765.898    -872.572     328.154
  H     -766.360    -870.934     329.903
  H     -763.336    -871.035     330.513
  H     -769.709    -876.988     330.024
  H     -764.051    -870.509     332.814
  H     -769.906    -876.502     331.666
  H     -764.585    -869.224     331.705
  P     -766.161    -868.969     328.246
  C     -764.580    -868.538     326.224
  O     -765.481    -867.976     327.159
  O     -766.565    -867.985     329.459
  O     -767.331    -869.764     327.749
  H     -767.365    -868.327     329.909
  H     -764.402    -867.819     325.431
  H     -764.991    -869.458     325.786
  H     -763.622    -868.769     326.736
  H     -765.112    -866.316     333.899
  H     -764.919    -867.674     334.981
  H     -766.480    -866.906     334.812

 3  4  5  6  7  8  9  10  11  12  13  23  27  28  29  30  32 0
 6-311+G(2d,p)
 ****
 34  35 0
 6-311+G(2d,p)
 ****
 1  2  14  15  16  17  18  19  20  21  22  24  25  26 0
 3-21G
 ****
 31  33  36  37  38  39  40  41  42  43  44  45  46 0
 3-21G
 ****


