%nproc=1
%NoSave
%Mem=1900MB
#P OB98/GEN NMR

erre ene a

0 1
  C     -138.871     183.872     203.969
  O     -137.594     184.347     204.420
  P     -137.548     185.725     205.238
  C     -136.004     186.975     203.557
  O     -137.268     186.922     204.212
  C     -135.930     188.190     202.627
  O     -135.961     189.430     203.363
  C     -134.656     188.247     201.794
  O     -134.752     187.417     200.643
  C     -134.637     189.713     201.387
  O     -135.538     189.927     200.286
  C     -135.168     190.405     202.650
  N     -132.193     194.416     203.810
  C     -133.120     194.226     202.843
  N     -133.857     193.127     202.587
  C     -133.573     192.151     203.462
  C     -132.656     192.196     204.503
  C     -131.941     193.394     204.664
  N     -131.003     193.577     205.653
  N     -132.632     190.997     205.188
  C     -133.534     190.243     204.582
  N     -134.123     190.896     203.532
  O     -136.179     185.612     206.062
  O     -138.719     185.927     206.149
  H     -136.386     189.501     200.523
  H     -136.280     186.047     206.931
  H     -133.291     195.077     202.189
  H     -133.793     189.236     204.867
  H     -135.820     191.258     202.412
  H     -133.645     190.044     201.060
  H     -133.775     188.011     202.404
  H     -136.805     188.161     201.967
  H     -135.839     186.055     202.990
  H     -130.549     194.474     205.725
  H     -130.829     192.828     206.311
  H     -135.212     187.011     204.315
  P     -134.135     185.940     200.753
  C     -131.959     186.415     199.412
  O     -132.545     186.123     200.668
  O     -134.530     185.282     199.348
  O     -134.646     185.145     201.907
  H     -134.651     184.319     199.450
  H     -130.949     186.803     199.578
  H     -132.538     187.171     198.872
  H     -131.896     185.502     198.815
  H     -138.743     182.949     203.443
  H     -139.311     184.597     203.316
  H     -139.511     183.716     204.812

 3  4  5  6  7  8  9  10  11  12  22  25  29  30  31  32 0
 6-311+G(2d,p)
 ****
 33  36  37 0
 6-311+G(2d,p)
 ****
 1  2  13  14  15  16  17  18  19  20  21  23  24  26 0
 3-21G
 ****
 27  28  34  35  38  39  40  41  42  43  44  45  46  47  48 0
 3-21G
 ****


