%nproc=1
%NoSave
%Mem=1900MB
#P OB98/GEN NMR

erre ene a

0 1
  C      -27.603     920.927     144.359
  O      -27.616     920.971     145.774
  H      -28.053     921.845     143.975
  H      -28.190     920.073     144.004
  H      -26.574     920.852     143.990
  P      -27.014     919.694     146.534
  C      -28.089     919.982     148.879
  O      -26.917     920.101     148.086
  C      -28.079     921.016     149.998
  O      -26.823     920.978     150.719
  C      -28.270     922.458     149.541
  O      -29.641     922.757     149.360
  C      -27.651     923.223     150.698
  O      -28.567     923.346     151.805
  C      -26.457     922.337     151.074
  N      -23.158     926.089     150.318
  C      -24.286     926.043     151.100
  N      -24.628     927.195     151.733
  N      -25.035     924.978     151.239
  C      -24.594     923.919     150.519
  C      -23.479     923.832     149.721
  C      -22.647     925.009     149.596
  O      -21.591     925.088     148.975
  N      -23.361     922.584     149.171
  C      -24.418     921.927     149.606
  N      -25.217     922.706     150.416
  O      -25.483     919.662     146.067
  O      -27.702     918.396     146.256
  H      -28.117     923.779     152.551
  H      -25.175     918.737     146.050
  H      -22.613     926.931     150.259
  H      -24.659     920.900     149.366
  H      -26.254     922.347     152.154
  H      -27.381     924.241     150.413
  H      -24.300     928.092     151.406
  H      -27.695     922.652     148.629
  H      -25.469     927.178     152.297
  H      -28.863     920.739     150.716
  H      -28.129     918.982     149.311
  H      -28.969     920.133     148.240
  P      -30.063     923.539     148.014
  C      -31.502     925.453     149.031
  O      -31.483     924.223     148.314
  O      -30.432     922.357     147.000
  O      -29.006     924.444     147.461
  H      -30.439     922.691     146.084
  H      -32.514     925.780     149.151
  H      -30.951     926.191     148.487
  H      -31.056     925.312     149.993

 6  7  8  9  10  11  12  13  14  15  26  29  33  34 0
 6-311+G(2d,p)
 ****
 36  38  39  40  41 0
 6-311+G(2d,p)
 ****
 1  2  3  4  5  16  17  18  19  20  21  22  23  24  25 0
 3-21G
 ****
 27  28  30  31  32  35  37  42  43  44  45  46  47 0
 3-21G
 ****
 48  49 0
 3-21G
 ****


