%nproc=1
%NoSave
%Mem=1900MB
#P OB98/GEN NMR

erre ene a

0 1
  C       97.654     237.835    -233.962
  O       96.306     238.123    -234.278
  H       97.807     238.014    -232.894
  H       98.322     238.494    -234.523
  H       97.890     236.790    -234.178
  P       95.787     237.847    -235.770
  C       94.904     235.461    -235.398
  O       94.561     236.816    -235.648
  C       93.688     234.554    -235.582
  O       94.079     233.187    -235.300
  C       92.513     234.908    -234.663
  O       91.298     234.713    -235.387
  C       92.615     233.880    -233.552
  O       91.355     233.625    -232.932
  C       93.188     232.672    -234.291
  N       93.513     227.891    -232.692
  C       92.735     228.447    -233.689
  N       91.900     227.614    -234.346
  N       92.771     229.712    -234.014
  C       93.663     230.430    -233.286
  C       94.487     229.998    -232.274
  C       94.428     228.595    -231.914
  O       95.081     228.048    -231.033
  N       95.228     231.031    -231.760
  C       94.852     232.086    -232.459
  N       93.896     231.775    -233.390
  O       96.839     237.443    -236.752
  O       95.074     239.215    -236.191
  H       90.753     233.292    -233.632
  H       95.662     239.750    -236.757
  H       93.439     226.913    -232.477
  H       95.229     233.092    -232.327
  H       92.409     232.078    -234.785
  H       93.311     234.237    -232.782
  H       91.831     226.624    -234.162
  H       92.562     235.934    -234.283
  H       91.337     227.995    -235.097
  H       93.387     234.588    -236.636
  H       95.270     235.384    -234.368
  H       95.706     235.157    -236.081
  P       90.173     235.855    -235.328
  C       90.792     237.445    -237.260
  O       89.932     236.398    -236.818
  O       90.376     236.910    -234.291
  O       88.833     235.016    -235.045
  H       88.212     235.576    -234.537
  H       90.534     237.719    -238.262
  H       91.807     237.108    -237.232
  H       90.680     238.294    -236.618

 6  7  8  9  10  11  12  13  14  15  26  29  33  34 0
 6-311+G(2d,p)
 ****
 36  38  39  40  41 0
 6-311+G(2d,p)
 ****
 1  2  3  4  5  16  17  18  19  20  21  22  23  24  25 0
 3-21G
 ****
 27  28  30  31  32  35  37  42  43  44  45  46  47 0
 3-21G
 ****
 48  49 0
 3-21G
 ****


