%nproc=1
%NoSave
%Mem=1900MB
#P OB98/GEN NMR

erre ene a

0 1
  C      122.805     -74.399    -442.315
  O      121.639     -74.601    -443.084
  H      122.938     -73.329    -442.149
  H      123.670     -74.781    -442.861
  H      122.728     -74.900    -441.344
  P      121.026     -76.083    -443.115
  C      120.416     -76.530    -440.632
  O      119.953     -76.162    -441.923
  C      119.457     -77.532    -439.985
  O      120.154     -78.198    -438.887
  C      118.179     -76.897    -439.414
  O      117.085     -77.801    -439.618
  C      118.468     -76.837    -437.925
  O      117.282     -76.790    -437.142
  C      119.283     -78.117    -437.744
  N      119.626     -80.369    -433.270
  C      118.915     -80.722    -434.400
  N      118.126     -81.814    -434.315
  N      118.976     -80.058    -435.527
  C      119.820     -78.999    -435.486
  C      120.570     -78.543    -434.427
  C      120.486     -79.277    -433.183
  O      121.075     -79.001    -432.142
  N      121.251     -77.401    -434.767
  C      120.891     -77.156    -436.019
  N      120.022     -78.099    -436.495
  O      122.246     -76.977    -442.585
  O      120.539     -76.547    -444.447
  H      117.542     -76.787    -436.197
  H      122.749     -77.330    -443.340
  H      119.535     -80.903    -432.426
  H      121.211     -76.309    -436.608
  H      118.650     -79.017    -437.728
  H      119.072     -75.951    -437.697
  H      118.053     -82.392    -433.492
  H      117.937     -75.922    -439.843
  H      117.630     -82.105    -435.147
  H      119.212     -78.307    -440.722
  H      120.475     -75.636    -440.004
  H      121.419     -76.963    -440.719
  P      115.909     -77.351    -440.618
  C      116.787     -77.933    -442.995
  O      115.944     -78.296    -441.911
  O      116.433     -75.944    -441.172
  O      114.577     -77.212    -439.959
  H      115.681     -75.345    -441.325
  H      116.698     -78.660    -443.775
  H      117.802     -77.893    -442.659
  H      116.496     -76.973    -443.367

 6  7  8  9  10  11  12  13  14  15  26  29  33  34 0
 6-311+G(2d,p)
 ****
 36  38  39  40  41 0
 6-311+G(2d,p)
 ****
 1  2  3  4  5  16  17  18  19  20  21  22  23  24  25 0
 3-21G
 ****
 27  28  30  31  32  35  37  42  43  44  45  46  47 0
 3-21G
 ****
 48  49 0
 3-21G
 ****


