%nproc=1
%NoSave
%Mem=1900MB
#P OB98/GEN NMR

erre ene a

0 1
  C      128.832     -27.350      97.855
  O      129.128     -28.731      98.015
  P      128.408     -29.779      97.038
  C      130.320     -29.839      95.287
  O      128.967     -29.501      95.558
  C      130.428     -30.746      94.061
  O      131.823     -30.846      93.669
  C      129.914     -32.174      94.280
  O      129.360     -32.621      93.037
  C      131.184     -32.954      94.567
  O      131.024     -34.351      94.335
  C      132.155     -32.251      93.622
  N      136.390     -34.984      92.767
  C      135.171     -35.013      92.188
  N      134.094     -34.251      92.469
  C      134.366     -33.392      93.466
  C      135.550     -33.273      94.174
  C      136.603     -34.119      93.787
  N      137.849     -34.088      94.369
  N      135.438     -32.298      95.144
  C      134.211     -31.836      95.024
  N      133.536     -32.450      94.007
  O      126.906     -29.229      96.980
  O      128.449     -31.199      97.485
  H      130.229     -34.651      94.816
  H      126.306     -29.852      97.433
  H      135.047     -35.736      91.387
  H      133.769     -31.068      95.641
  H      132.042     -32.589      92.584
  H      131.477     -32.815      95.613
  H      129.174     -32.266      95.081
  H      129.892     -30.269      93.231
  H      130.728     -30.371      96.152
  H      138.587     -34.624      93.946
  H      138.075     -33.321      94.994
  H      130.902     -28.926      95.134
  P      128.101     -33.610      93.117
  C      126.465     -31.798      92.241
  O      126.804     -32.691      93.286
  O      128.267     -34.306      94.548
  O      128.049     -34.619      92.015
  H      127.858     -35.190      94.539
  H      125.378     -31.707      92.194
  H      126.835     -32.145      91.272
  H      126.895     -30.815      92.456
  H      129.385     -26.781      98.573
  H      127.784     -27.190      98.003
  H      129.104     -27.039      96.868

 3  4  5  6  7  8  9  10  11  12  22  25  29  30  31  32 0
 6-311+G(2d,p)
 ****
 33  36  37 0
 6-311+G(2d,p)
 ****
 1  2  13  14  15  16  17  18  19  20  21  23  24  26 0
 3-21G
 ****
 27  28  34  35  38  39  40  41  42  43  44  45  46  47  48 0
 3-21G
 ****


