%nproc=1
%NoSave
%Mem=1900MB
#P OB98/GEN NMR

erre ene a

0 1
  C       25.995     112.217    -253.293
  O       26.017     111.118    -254.183
  H       26.087     113.152    -253.858
  H       25.042     112.219    -252.757
  H       26.810     112.142    -252.569
  P       27.400     110.829    -254.942
  C       26.510     111.298    -257.341
  O       27.357     111.721    -256.282
  C       26.216     112.466    -258.286
  O       25.534     111.958    -259.464
  C       25.330     113.551    -257.664
  O       25.783     114.832    -258.108
  C       23.958     113.263    -258.251
  O       23.122     114.417    -258.272
  C       24.323     112.730    -259.633
  N       21.521     111.791    -263.802
  C       22.569     112.621    -263.582
  N       23.257     112.806    -262.436
  C       22.812     111.983    -261.473
  C       21.752     111.087    -261.541
  C       21.088     111.013    -262.779
  N       20.002     110.199    -263.005
  N       21.572     110.452    -260.329
  C       22.500     110.961    -259.535
  N       23.268     111.892    -260.182
  O       27.187     109.330    -255.485
  O       28.633     110.955    -254.120
  H       23.067     114.771    -257.358
  H       27.349     108.697    -254.756
  H       22.882     113.219    -264.430
  H       22.650     110.690    -258.499
  H       24.512     113.527    -260.353
  H       23.452     112.488    -257.652
  H       25.323     113.521    -256.573
  H       27.171     112.886    -258.631
  H       25.569     110.923    -256.920
  H       19.541     110.251    -263.900
  H       19.625     109.653    -262.236
  H       27.002     110.488    -257.896
  P       26.599     115.713    -257.034
  C       24.618     117.027    -256.008
  O       25.629     116.052    -255.806
  O       26.782     117.123    -257.780
  O       27.924     115.119    -256.660
  H       27.719     117.400    -257.741
  H       24.053     117.147    -255.107
  H       23.969     116.709    -256.797
  H       25.070     117.960    -256.272

 6  7  8  9  10  11  12  13  14  15  25  28  32  33  34  35 0
 6-311+G(2d,p)
 ****
 36  39  40 0
 6-311+G(2d,p)
 ****
 1  2  3  4  5  16  17  18  19  20  21  22  23  24 0
 3-21G
 ****
 26  27  29  30  31  37  38  41  42  43  44  45  46  47 0
 3-21G
 ****
 48 0
 3-21G
 ****


