%nproc=1
%NoSave
%Mem=1900MB
#P OB98/GEN NMR

erre ene a

0 1
  C       84.356      94.801     -12.272
  O       85.751      94.924     -12.504
  P       86.742      94.527     -11.306
  C       87.459      97.024     -11.152
  O       86.995      95.868     -10.465
  C       86.833      98.281     -10.556
  O       85.393      98.181     -10.547
  C       87.223      98.546      -9.107
  O       88.492      99.169      -8.994
  C       86.122      99.503      -8.679
  O       86.416     100.834      -9.142
  C       84.899      98.937      -9.413
  N       81.310      98.852      -5.846
  C       81.765      99.905      -6.619
  N       81.227     101.116      -6.360
  N       82.662      99.782      -7.561
  C       83.119      98.510      -7.702
  C       82.741      97.386      -7.000
  C       81.754      97.541      -5.950
  O       81.350      96.660      -5.200
  N       83.418      96.276      -7.432
  C       84.200      96.724      -8.396
  N       84.088      98.079      -8.568
  O       88.142      94.291     -12.048
  O       86.316      93.335     -10.513
  H       85.601     101.356      -9.032
  H       88.745      93.785     -11.470
  H       80.621      99.001      -5.129
  H       84.873      96.109      -8.982
  H       84.257      99.730      -9.807
  H       86.008      99.562      -7.591
  H       80.579     101.290      -5.606
  H       87.166      97.631      -8.504
  H       81.589     101.915      -6.867
  H       87.109      99.132     -11.193
  H       87.190      96.944     -12.207
  H       88.552      97.073     -11.076
  P       89.601      98.403      -8.122
  C       89.072     100.059      -6.194
  O       89.228      98.711      -6.595
  O       90.925      99.262      -8.379
  O       89.782      96.965      -8.478
  H       91.717      98.712      -8.264
  H       88.568     100.079      -5.218
  H       88.468     100.620      -6.910
  H       90.054     100.533      -6.089
  H       83.821      95.097     -13.150
  H       84.074      95.429     -11.453
  H       84.122      93.784     -12.038

 3  4  5  6  7  8  9  10  11  12  23  26  30  31 0
 6-311+G(2d,p)
 ****
 33  35  36  37  38 0
 6-311+G(2d,p)
 ****
 1  2  13  14  15  16  17  18  19  20  21  22  24  25 0
 3-21G
 ****
 27  28  29  32  34  39  40  41  42  43  44  45  46  47  48  49 0
 3-21G
 ****


