%nproc=1
%NoSave
%Mem=1900MB
#P OB98/GEN NMR

erre ene a

0 1
  C      330.106     944.162     328.733
  O      331.352     943.540     328.474
  H      330.281     945.213     328.956
  H      329.630     943.689     329.596
  H      329.454     944.087     327.858
  P      331.305     942.025     327.939
  C      332.759     941.376     330.027
  O      332.556     941.293     328.628
  C      333.969     940.531     330.440
  O      333.502     939.248     330.918
  C      334.956     940.265     329.302
  O      336.282     940.291     329.836
  C      334.612     938.862     328.839
  O      335.702     938.228     328.190
  C      334.145     938.210     330.154
  N      333.259     937.070     329.932
  C      333.870     935.823     329.776
  O      335.097     935.724     329.805
  N      333.079     934.720     329.541
  C      331.798     934.876     329.408
  N      331.073     933.745     329.162
  C      331.119     936.183     329.516
  C      331.899     937.223     329.790
  O      331.757     942.208     326.416
  O      329.984     941.355     328.123
  H      336.505     938.339     328.762
  H      332.481     942.839     326.292
  H      330.045     936.256     329.384
  H      331.487     938.219     329.889
  H      335.023     937.866     330.733
  H      333.771     938.902     328.129
  H      334.884     940.987     328.488
  H      334.466     941.018     331.289
  H      331.573     932.877     329.071
  H      331.878     941.027     330.561
  H      330.073     933.752     328.986
  H      332.923     942.429     330.281
  P      337.228     941.550     329.553
  C      339.201     940.012     328.927
  O      338.762     941.106     329.709
  O      336.851     942.809     330.259
  O      337.100     941.738     327.959
  H      337.077     942.695     327.771
  H      340.235     939.823     329.127
  H      339.074     940.241     327.890
  H      338.626     939.144     329.173

 6  7  8  9  10  11  12  13  14  15  16  26  30  31  32  33  35 0
 6-311+G(2d,p)
 ****
 37  38 0
 6-311+G(2d,p)
 ****
 1  2  3  4  5  17  18  19  20  21  22  23  24  25 0
 3-21G
 ****
 27  28  29  34  36  39  40  41  42  43  44  45  46 0
 3-21G
 ****


