%nproc=1
%NoSave
%Mem=1900MB
#P OB98/GEN NMR

erre ene a

0 1
  C        9.371      21.265     -48.693
  O        8.878      19.946     -48.573
  H       10.273      21.358     -48.083
  H        8.629      21.980     -48.328
  H        9.627      21.492     -49.731
  P        7.644      19.497     -49.491
  C        5.317      19.344     -48.389
  O        6.336      20.199     -48.890
  C        5.768      18.717     -47.072
  O        6.389      19.714     -46.232
  C        4.628      18.133     -46.247
  O        4.198      16.893     -46.772
  C        5.280      18.053     -44.876
  O        6.108      16.885     -44.768
  C        6.134      19.340     -44.859
  N        5.500      20.432     -44.123
  C        5.400      20.275     -42.744
  O        5.783      19.268     -42.149
  N        4.811      21.310     -42.067
  C        4.226      22.405     -42.631
  O        3.632      23.261     -41.985
  C        4.340      22.507     -44.093
  C        4.963      21.533     -44.760
  O        7.519      18.031     -49.734
  O        7.881      20.297     -50.859
  H        5.509      16.116     -44.827
  H        8.215      19.683     -51.539
  H        4.717      21.208     -41.069
  H        3.902      23.369     -44.576
  H        5.052      21.588     -45.838
  H        7.111      19.141     -44.401
  H        4.547      18.000     -44.072
  H        3.795      18.843     -46.200
  H        6.520      17.949     -47.297
  H        5.128      18.554     -49.123
  H        4.400      19.927     -48.249
  P        2.782      16.289     -46.337
  C        3.110      14.124     -44.993
  O        2.981      15.540     -44.934
  O        2.077      15.494     -47.384
  O        1.926      17.581     -45.936
  H        1.141      17.640     -46.513
  H        3.237      13.736     -44.004
  H        3.961      13.868     -45.589
  H        2.229      13.704     -45.431

 6  7  8  9  10  11  12  13  14  15  16  26  31  32  33  34  35 0
 6-311+G(2d,p)
 ****
 36  37 0
 6-311+G(2d,p)
 ****
 1  2  3  4  5  17  18  19  20  21  22  23  24  25 0
 3-21G
 ****
 27  28  29  30  38  39  40  41  42  43  44  45 0
 3-21G
 ****


