%nproc=1
%NoSave
%Mem=1900MB
#P OB98/GEN NMR

erre ene a

0 1
  C      619.157     547.001     317.211
  O      619.671     546.311     318.331
  H      619.966     547.574     316.752
  H      618.367     547.695     317.519
  H      618.767     546.296     316.474
  P      618.669     545.424     319.211
  C      619.588     543.061     318.704
  O      618.552     544.006     318.462
  C      619.006     541.649     318.774
  O      618.098     541.536     319.888
  C      618.215     541.232     317.535
  O      619.095     540.795     316.512
  C      617.379     540.103     318.107
  O      618.198     538.921     318.251
  C      617.008     540.652     319.500
  N      612.050     540.448     320.554
  C      612.984     539.432     320.497
  N      612.526     538.182     320.717
  N      614.249     539.629     320.230
  C      614.549     540.917     319.954
  C      613.710     542.004     319.968
  C      612.325     541.788     320.332
  O      611.471     542.668     320.418
  N      614.352     543.141     319.550
  C      615.594     542.753     319.337
  N      615.768     541.402     319.560
  O      617.346     546.051     319.533
  O      619.505     545.069     320.527
  H      617.749     538.342     318.898
  H      619.347     545.726     321.231
  H      611.085     540.237     320.758
  H      616.410     543.399     319.026
  H      616.942     539.860     320.254
  H      616.534     539.836     317.474
  H      611.546     537.956     320.780
  H      617.547     542.031     317.195
  H      613.189     537.421     320.620
  H      619.838     540.953     318.965
  H      620.063     543.327     319.655
  H      620.337     543.108     317.909
  P      618.554     540.451     315.035
  C      618.529     542.842     314.053
  O      617.764     541.762     314.556
  O      617.781     539.185     314.931
  O      619.862     540.494     314.116
  H      620.357     539.634     314.113
  H      617.876     543.642     313.774
  H      619.083     542.518     313.197
  H      619.206     543.182     314.808

 6  7  8  9  10  11  12  13  14  15  26  29  33  34 0
 6-311+G(2d,p)
 ****
 36  38  39  40  41 0
 6-311+G(2d,p)
 ****
 1  2  3  4  5  16  17  18  19  20  21  22  23  24  25 0
 3-21G
 ****
 27  28  30  31  32  35  37  42  43  44  45  46  47 0
 3-21G
 ****
 48  49 0
 3-21G
 ****


