%nproc=1
%NoSave
%Mem=1900MB
#P OB98/GEN NMR

erre ene a

0 1
  C     -512.565     870.320     542.207
  O     -513.204     869.056     542.154
  H     -513.251     871.031     542.676
  H     -512.325     870.667     541.206
  H     -511.653     870.263     542.811
  P     -512.401     867.830     541.507
  C     -511.217     866.918     543.610
  O     -512.258     866.728     542.671
  C     -511.524     866.154     544.889
  O     -512.632     866.768     545.596
  C     -511.912     864.685     544.677
  O     -510.748     863.905     544.505
  C     -512.647     864.405     545.988
  O     -511.696     864.204     547.045
  C     -513.431     865.690     546.194
  N     -518.342     864.599     546.858
  C     -517.263     864.381     547.686
  N     -517.513     863.713     548.848
  N     -516.035     864.736     547.401
  C     -515.914     865.306     546.185
  C     -516.901     865.572     545.266
  C     -518.271     865.210     545.612
  O     -519.257     865.401     544.917
  N     -516.391     866.104     544.094
  C     -515.098     866.205     544.338
  N     -514.765     865.723     545.588
  O     -511.108     868.163     540.837
  O     -513.445     867.163     540.496
  H     -510.999     863.619     546.694
  H     -513.355     867.535     539.599
  H     -519.258     864.276     547.128
  H     -514.369     866.616     543.651
  H     -513.551     865.945     547.266
  H     -513.257     863.495     545.935
  H     -518.361     863.193     548.990
  H     -512.613     864.570     543.843
  H     -516.738     863.524     549.455
  H     -510.652     866.236     545.567
  H     -511.135     867.994     543.814
  H     -510.264     866.571     543.202
  P     -510.811     862.490     543.737
  C     -510.128     862.974     541.280
  O     -509.697     862.581     542.595
  O     -512.184     862.103     543.239
  O     -510.188     861.437     544.761
  H     -510.846     861.044     545.391
  H     -509.286     862.993     540.620
  H     -510.568     863.948     541.325
  H     -510.850     862.273     540.917

 6  7  8  9  10  11  12  13  14  15  26  29  33  34 0
 6-311+G(2d,p)
 ****
 36  38  39  40  41 0
 6-311+G(2d,p)
 ****
 1  2  3  4  5  16  17  18  19  20  21  22  23  24  25 0
 3-21G
 ****
 27  28  30  31  32  35  37  42  43  44  45  46  47 0
 3-21G
 ****
 48  49 0
 3-21G
 ****


