%nproc=1
%NoSave
%Mem=1900MB
#P OB98/GEN NMR

erre ene a

0 1
  C      104.816    -108.484    -110.383
  O      106.007    -107.967    -110.944
  H      104.296    -107.676    -109.861
  H      105.048    -109.276    -109.667
  H      104.166    -108.871    -111.172
  P      106.948    -109.021    -111.707
  C      108.175    -111.202    -111.025
  O      107.491    -110.035    -110.586
  C      108.180    -112.263    -109.928
  O      106.832    -112.581    -109.518
  C      108.842    -113.577    -110.327
  O      110.249    -113.505    -110.170
  C      108.188    -114.545    -109.349
  O      108.818    -114.473    -108.051
  C      106.749    -114.013    -109.284
  N      105.044    -118.383    -111.160
  C      106.047    -118.135    -110.242
  N      106.718    -119.212    -109.775
  N      106.376    -116.942    -109.828
  C      105.664    -115.953    -110.425
  C      104.648    -116.070    -111.347
  C      104.257    -117.401    -111.752
  O      103.324    -117.689    -112.499
  N      104.156    -114.838    -111.699
  C      104.897    -113.982    -111.017
  N      105.831    -114.612    -110.234
  O      108.247    -108.160    -112.082
  O      106.352    -109.651    -112.920
  H      108.475    -115.191    -107.491
  H      108.564    -108.439    -112.963
  H      104.813    -119.324    -111.418
  H      104.792    -112.905    -111.052
  H      106.308    -114.154    -108.293
  H      108.287    -115.580    -109.680
  H      106.713    -120.099    -110.258
  H      108.570    -113.858    -111.352
  H      107.500    -119.024    -109.158
  H      108.685    -111.827    -109.053
  H      109.204    -110.933    -111.277
  H      107.677    -111.595    -111.918
  P      111.074    -114.875    -110.112
  C      112.168    -116.215    -108.172
  O      111.098    -115.377    -108.586
  O      112.581    -114.397    -110.372
  O      110.659    -115.897    -111.115
  H      112.850    -114.634    -111.280
  H      112.047    -116.464    -107.139
  H      113.097    -115.701    -108.308
  H      112.167    -117.111    -108.757

 6  7  8  9  10  11  12  13  14  15  26  29  33  34 0
 6-311+G(2d,p)
 ****
 36  38  39  40  41 0
 6-311+G(2d,p)
 ****
 1  2  3  4  5  16  17  18  19  20  21  22  23  24  25 0
 3-21G
 ****
 27  28  30  31  32  35  37  42  43  44  45  46  47 0
 3-21G
 ****
 48  49 0
 3-21G
 ****


