%nproc=1
%NoSave
%Mem=1900MB
#P OB98/GEN NMR

erre ene a

0 1
  C      335.593    -345.966     297.072
  O      334.668    -344.936     296.777
  H      335.693    -346.607     296.192
  H      335.227    -346.569     297.911
  H      336.569    -345.541     297.318
  P      334.391    -343.871     297.944
  C      335.534    -342.036     296.487
  O      335.463    -342.698     297.743
  C      336.865    -341.288     296.350
  O      337.952    -342.253     296.472
  C      337.048    -340.587     294.990
  O      337.901    -339.445     295.194
  C      337.797    -341.644     294.195
  O      338.356    -341.098     293.022
  C      338.755    -342.141     295.275
  N      343.204    -344.574     294.565
  C      342.921    -343.300     294.941
  N      341.709    -342.731     295.118
  C      340.726    -343.618     294.892
  C      340.856    -344.949     294.518
  C      342.174    -345.420     294.354
  N      342.464    -346.711     293.963
  N      339.616    -345.546     294.385
  C      338.752    -344.589     294.668
  N      339.372    -343.412     294.975
  O      334.898    -344.630     299.260
  O      332.974    -343.415     298.074
  H      337.774    -340.384     292.662
  H      334.147    -345.066     299.703
  H      343.781    -342.666     295.112
  H      337.673    -344.697     294.660
  H      339.564    -341.420     295.469
  H      337.121    -342.443     293.876
  H      336.109    -340.262     294.540
  H      336.970    -340.583     297.183
  H      334.703    -341.323     296.421
  H      335.443    -342.771     295.680
  H      343.430    -346.971     293.850
  H      341.707    -347.353     293.783
  P      337.232    -337.997     295.404
  C      337.893    -337.691     297.920
  O      336.855    -337.815     296.954
  O      335.784    -338.204     294.733
  O      337.958    -336.850     294.764
  H      335.458    -337.345     294.399
  H      337.463    -337.578     298.893
  H      338.491    -336.833     297.693
  H      338.505    -338.568     297.900

 6  7  8  9  10  11  12  13  14  15  25  28  32  33  34  35 0
 6-311+G(2d,p)
 ****
 36  37  40 0
 6-311+G(2d,p)
 ****
 1  2  3  4  5  16  17  18  19  20  21  22  23  24 0
 3-21G
 ****
 26  27  29  30  31  38  39 41  42  43  44  45  46  47  48 0
 3-21G
 ****


