%nproc=1
%NoSave
%Mem=1900MB
#P OB98/GEN NMR

erre ene a

0 1
  C      -30.433    -147.128    -383.972
  O      -31.128    -147.591    -385.111
  H      -29.757    -147.903    -383.603
  H      -29.843    -146.249    -384.248
  H      -31.141    -146.846    -383.187
  P      -32.030    -148.904    -384.928
  C      -30.710    -150.357    -386.625
  O      -31.945    -149.729    -386.306
  C      -30.402    -150.176    -388.113
  O      -29.996    -148.799    -388.328
  C      -29.290    -151.089    -388.651
  O      -29.785    -151.885    -389.734
  C      -28.242    -150.134    -389.197
  O      -27.668    -150.573    -390.429
  C      -29.007    -148.827    -389.366
  N      -25.257    -146.306    -391.718
  C      -26.191    -147.159    -392.189
  N      -27.228    -147.714    -391.533
  C      -27.267    -147.286    -390.259
  C      -26.395    -146.402    -389.640
  C      -25.334    -145.916    -390.426
  N      -24.350    -145.094    -389.931
  N      -26.749    -146.210    -388.318
  C      -27.787    -146.999    -388.129
  N      -28.125    -147.682    -389.267
  O      -33.523    -148.329    -384.923
  O      -31.742    -149.700    -383.697
  H      -27.127    -149.836    -390.763
  H      -34.019    -148.708    -384.173
  H      -26.089    -147.439    -393.238
  H      -28.300    -147.149    -387.185
  H      -29.529    -148.777    -390.333
  H      -27.437    -150.030    -388.460
  H      -28.864    -151.745    -387.880
  H      -31.331    -150.331    -388.675
  H      -30.774    -151.429    -386.406
  H      -23.566    -144.887    -390.529
  H      -24.342    -144.885    -388.941
  H      -29.918    -149.919    -386.006
  P      -29.849    -153.476    -389.493
  C      -28.254    -154.333    -391.365
  O      -29.595    -154.186    -390.913
  O      -31.406    -153.738    -389.227
  O      -28.997    -153.950    -388.365
  H      -31.524    -154.533    -388.673
  H      -28.250    -154.820    -392.318
  H      -27.703    -154.922    -390.662
  H      -27.800    -153.368    -391.456

 6  7  8  9  10  11  12  13  14  15  25  28  32  33  34  35 0
 6-311+G(2d,p)
 ****
 36  39  40 0
 6-311+G(2d,p)
 ****
 1  2  3  4  5  16  17  18  19  20  21  22  23  24 0
 3-21G
 ****
 26  27  29  30  31  37  38  41  42  43  44  45  46  47  48 0
 3-21G
 ****


