%nproc=1
%NoSave
%Mem=1900MB
#P OB98/GEN NMR

erre ene a

0 1
  C     -716.131    -531.719    -102.677
  O     -715.390    -532.091    -101.539
  H     -715.878    -530.685    -102.934
  H     -717.204    -531.765    -102.468
  H     -715.887    -532.363    -103.525
  P     -715.596    -533.553    -100.908
  C     -715.429    -532.817     -98.455
  O     -714.797    -533.528     -99.509
  C     -714.680    -533.010     -97.133
  O     -714.864    -534.371     -96.666
  C     -713.168    -532.756     -97.240
  O     -712.739    -531.924     -96.158
  C     -712.562    -534.144     -97.087
  O     -711.222    -534.119     -96.610
  C     -713.586    -534.804     -96.162
  N     -713.458    -536.255     -96.148
  C     -712.683    -536.792     -95.114
  O     -712.165    -536.055     -94.276
  N     -712.475    -538.148     -95.083
  C     -712.954    -538.896     -96.027
  N     -712.686    -540.226     -95.954
  C     -713.750    -538.363     -97.153
  C     -713.964    -537.049     -97.147
  O     -715.244    -534.680    -101.818
  O     -717.127    -533.584    -100.436
  H     -711.212    -533.679     -95.730
  H     -717.421    -534.522    -100.372
  H     -714.123    -539.026     -97.920
  H     -714.539    -536.567     -97.931
  H     -713.483    -534.434     -95.133
  H     -712.564    -534.647     -98.063
  H     -712.873    -532.293     -98.183
  H     -715.138    -532.357     -96.376
  H     -712.127    -540.545     -95.168
  H     -716.464    -533.172     -98.364
  H     -712.982    -540.901     -96.643
  H     -715.433    -531.750     -98.709
  P     -713.341    -530.437     -96.126
  C     -711.104    -529.214     -95.627
  O     -712.408    -529.547     -95.170
  O     -714.700    -530.607     -95.300
  O     -713.591    -529.868     -97.482
  H     -715.466    -530.493     -95.894
  H     -710.607    -528.623     -94.887
  H     -711.177    -528.658     -96.538
  H     -710.547    -530.111     -95.800

 6  7  8  9  10  11  12  13  14  15  16  26  30  31  32  33  35 0
 6-311+G(2d,p)
 ****
 37  38 0
 6-311+G(2d,p)
 ****
 1  2  3  4  5  17  18  19  20  21  22  23  24  25 0
 3-21G
 ****
 27  28  29  34  36  39  40  41  42  43  44  45  46 0
 3-21G
 ****


