%nproc=1
%NoSave
%Mem=1900MB
#P OB98/GEN NMR

erre ene a

0 1
  C      -32.187    -193.126    -302.503
  O      -30.780    -193.065    -302.757
  P      -30.305    -192.335    -304.106
  C      -29.140    -194.458    -305.087
  O      -29.005    -193.135    -304.604
  C      -27.829    -194.947    -305.716
  O      -27.281    -193.906    -306.581
  C      -26.744    -195.331    -304.703
  O      -26.052    -196.465    -305.244
  C      -25.838    -194.114    -304.695
  O      -24.533    -194.423    -304.225
  C      -25.915    -193.695    -306.167
  N      -25.496    -192.312    -306.382
  C      -24.165    -192.103    -306.720
  O      -23.335    -193.010    -306.762
  N      -23.805    -190.805    -306.963
  C      -24.614    -189.712    -306.828
  O      -24.239    -188.569    -307.057
  C      -25.980    -189.985    -306.358
  C      -26.350    -191.253    -306.160
  O      -29.731    -190.958    -303.534
  O      -31.400    -192.198    -305.112
  H      -29.275    -191.052    -302.681
  H      -23.943    -193.661    -304.395
  H      -22.852    -190.633    -307.240
  H      -26.632    -189.139    -306.181
  H      -27.342    -191.485    -305.793
  H      -25.284    -194.347    -306.783
  H      -26.262    -193.336    -304.049
  H      -27.150    -195.581    -303.718
  H      -28.062    -195.808    -306.354
  H      -29.931    -194.499    -305.844
  H      -29.452    -195.113    -304.265
  P      -26.347    -197.914    -304.607
  C      -23.886    -198.323    -303.820
  O      -24.967    -198.726    -304.626
  O      -27.177    -198.581    -305.807
  O      -27.105    -197.896    -303.321
  H      -26.757    -198.456    -306.677
  H      -23.144    -199.128    -303.798
  H      -24.208    -198.123    -302.795
  H      -23.420    -197.429    -304.243
  H      -32.361    -193.635    -301.578
  H      -32.670    -193.655    -303.298
  H      -32.582    -192.133    -302.443

 3  4  5  6  7  8  9  10  11  12  13  24  28  29  30  31  32 0
 6-311+G(2d,p)
 ****
 33  34 0
 6-311+G(2d,p)
 ****
 1  2  14  15  16  17  18  19  20  21  22  23  25  26  27 0
 3-21G
 ****
 35  36  37  38  39  40  41  42  43  44  45 0
 3-21G
 ****


