%nproc=1
%NoSave
%Mem=1900MB
#P OB98/GEN NMR

erre ene a

0 1
  C       18.978     -29.715      96.302
  O       17.757     -29.130      95.910
  P       16.552     -28.973      96.955
  C       14.705     -30.689      96.439
  O       15.922     -30.439      97.138
  C       15.000     -31.293      95.068
  O       15.919     -32.412      95.176
  C       13.781     -31.875      94.369
  O       12.769     -30.975      93.971
  C       14.433     -32.710      93.280
  O       14.814     -31.907      92.164
  C       15.686     -33.250      94.016
  N       15.542     -34.657      94.379
  C       15.852     -35.579      93.385
  O       16.225     -35.264      92.255
  N       15.686     -36.895      93.718
  C       15.206     -37.368      94.906
  O       15.043     -38.563      95.121
  C       14.883     -36.348      95.911
  C       15.060     -35.058      95.610
  O       15.561     -27.907      96.629
  O       17.307     -28.754      98.352
  H       14.002     -31.686      91.670
  H       17.893     -29.484      98.618
  H       15.891     -37.580      93.007
  H       14.513     -36.688      96.869
  H       14.826     -34.285      96.337
  H       16.574     -33.148      93.376
  H       13.757     -33.488      92.903
  H       13.293     -32.575      95.062
  H       15.491     -30.530      94.457
  H       14.170     -29.745      96.305
  H       14.072     -31.353      97.040
  P       11.329     -31.441      93.448
  C       11.023     -30.792      90.958
  O       11.441     -31.771      91.884
  O       10.156     -30.634      93.900
  O       11.220     -32.915      94.085
  H       10.283     -33.109      94.275
  H       11.127     -31.198      89.946
  H       11.645     -29.897      91.040
  H        9.972     -30.534      91.121
  H       19.650     -29.729      95.470
  H       18.803     -30.716      96.636
  H       19.408     -29.144      97.098

 3  4  5  6  7  8  9  10  11  12  13  23  28  29  30  31  32 0
 6-311+G(2d,p)
 ****
 33  34 0
 6-311+G(2d,p)
 ****
 1  2  14  15  16  17  18  19  20  21  22  24  25  26  27 0
 3-21G
 ****
 35  36  37  38  39  40  41  42  43  44  45 0
 3-21G
 ****


