%nproc=1
%NoSave
%Mem=1900MB
#P OB98/GEN NMR

erre ene a

0 1
  C       28.613      -1.684      15.693
  O       27.684      -2.743      15.577
  P       26.977      -3.074      14.182
  C       25.293      -1.154      14.393
  O       25.461      -2.559      14.258
  C       23.831      -0.791      14.645
  O       23.722       0.639      14.869
  C       22.886      -1.159      13.494
  O       21.660      -1.610      14.079
  C       22.682       0.164      12.782
  O       21.489       0.187      12.011
  C       22.712       1.134      13.968
  N       22.988       2.503      13.561
  C       21.992       3.159      12.835
  O       20.996       2.542      12.455
  N       22.160       4.490      12.549
  C       23.301       5.058      12.796
  N       23.402       6.394      12.559
  C       24.462       4.323      13.334
  C       24.227       3.075      13.731
  O       27.128      -4.483      13.714
  O       27.651      -2.054      13.146
  H       27.998      -2.557      12.384
  H       21.313       1.108      11.727
  H       25.425       4.805      13.405
  H       25.007       2.462      14.165
  H       21.758       1.111      14.508
  H       23.525       0.354      12.109
  H       23.289      -1.945      12.849
  H       23.510      -1.288      15.568
  H       22.573       6.872      12.229
  H       25.622      -0.681      13.466
  H       24.114       6.969      13.006
  H       25.929      -0.780      15.203
  P       21.161      -3.101      13.751
  C       19.058      -2.258      12.489
  O       19.575      -3.053      13.534
  O       21.281      -3.804      15.191
  O       21.960      -3.865      12.747
  H       21.394      -4.764      15.065
  H       17.966      -2.291      12.533
  H       19.379      -2.648      11.520
  H       19.381      -1.220      12.597
  H       28.968      -1.630      16.701
  H       28.137      -0.762      15.432
  H       29.437      -1.859      15.034

 3  4  5  6  7  8  9  10  11  12  13  24  27  28  29  30  32 0
 6-311+G(2d,p)
 ****
 34  35 0
 6-311+G(2d,p)
 ****
 1  2  14  15  16  17  18  19  20  21  22  23  25  26 0
 3-21G
 ****
 31  33  36  37  38  39  40  41  42  43  44  45  46 0
 3-21G
 ****


