%nproc=1
%NoSave
%Mem=1900MB
#P OB98/GEN NMR

erre ene a

0 1
  C      575.041     397.743     -59.636
  O      575.256     399.129     -59.945
  P      575.595     400.234     -58.822
  C      573.328     401.475     -58.833
  O      574.236     400.680     -58.086
  C      572.182     402.016     -57.964
  O      571.419     403.012     -58.703
  C      571.199     400.944     -57.474
  O      570.842     401.297     -56.128
  C      570.029     401.137     -58.433
  O      568.806     400.572     -57.969
  C      570.028     402.665     -58.539
  N      569.213     403.215     -59.632
  C      567.998     403.816     -59.296
  O      567.586     403.836     -58.139
  N      567.247     404.385     -60.309
  C      567.674     404.341     -61.531
  N      566.888     404.935     -62.485
  C      568.943     403.703     -61.928
  C      569.656     403.172     -60.945
  O      576.391     401.395     -59.351
  O      576.412     399.462     -57.689
  H      577.093     400.055     -57.321
  H      568.916     399.611     -57.927
  H      569.267     403.698     -62.960
  H      570.620     402.708     -61.139
  H      569.688     403.097     -57.586
  H      570.269     400.651     -59.386
  H      571.614     399.933     -57.470
  H      572.633     402.546     -57.108
  H      566.029     405.368     -62.173
  H      572.900     400.855     -59.633
  H      567.131     404.967     -63.463
  H      573.874     402.298     -59.309
  P      571.595     400.611     -54.890
  C      570.160     398.428     -54.900
  O      571.435     399.014     -55.047
  O      570.593     400.916     -53.674
  O      572.966     401.132     -54.587
  H      571.099     400.923     -52.845
  H      570.009     397.686     -55.690
  H      569.349     399.169     -54.943
  H      570.122     397.916     -53.929
  H      574.833     397.205     -60.537
  H      574.212     397.651     -58.966
  H      575.918     397.340     -59.175

 3  4  5  6  7  8  9  10  11  12  13  24  27  28  29  30  32 0
 6-311+G(2d,p)
 ****
 34  35 0
 6-311+G(2d,p)
 ****
 1  2  14  15  16  17  18  19  20  21  22  23  25  26 0
 3-21G
 ****
 31  33  36  37  38  39  40  41  42  43  44  45  46 0
 3-21G
 ****


