%nproc=1
%NoSave
%Mem=1900MB
#P OB98/GEN NMR

erre ene a

0 1
  C      184.352     -29.841    -107.174
  O      184.290     -31.080    -106.498
  H      184.450     -30.031    -108.247
  H      185.225     -29.278    -106.836
  H      183.443     -29.259    -107.000
  P      183.939     -31.028    -104.933
  C      185.749     -32.871    -104.650
  O      184.447     -32.418    -104.306
  C      185.841     -34.386    -104.491
  O      185.569     -34.764    -103.119
  C      184.857     -35.170    -105.353
  O      185.338     -35.339    -106.682
  C      184.825     -36.492    -104.606
  O      186.011     -37.253    -104.910
  C      184.845     -36.031    -103.143
  N      180.547     -38.324    -101.745
  C      181.684     -38.851    -102.329
  N      181.670     -40.174    -102.588
  N      182.739     -38.141    -102.640
  C      182.606     -36.826    -102.332
  C      181.535     -36.190    -101.753
  C      180.377     -36.985    -101.409
  O      179.355     -36.577    -100.867
  N      181.776     -34.851    -101.587
  C      182.983     -34.673    -102.088
  N      183.528     -35.838    -102.560
  O      182.343     -31.178    -104.906
  O      184.383     -29.800    -104.217
  H      186.017     -37.389    -105.873
  H      181.989     -30.631    -104.175
  H      179.758     -38.913    -101.538
  H      183.501     -33.725    -102.132
  H      185.389     -36.728    -102.494
  H      183.966     -37.112    -104.883
  H      180.872     -40.767    -102.420
  H      183.856     -34.714    -105.337
  H      182.504     -40.592    -102.984
  H      186.876     -34.685    -104.712
  H      186.484     -32.392    -103.993
  H      185.960     -32.588    -105.688
  P      184.581     -34.541    -107.852
  C      183.801     -36.570    -109.275
  O      184.697     -35.471    -109.155
  O      185.587     -33.334    -108.170
  O      183.215     -34.056    -107.506
  H      185.105     -32.596    -108.580
  H      183.998     -37.093    -110.188
  H      182.793     -36.210    -109.280
  H      183.938     -37.234    -108.447

 6  7  8  9  10  11  12  13  14  15  26  29  33  34 0
 6-311+G(2d,p)
 ****
 36  38  39  40  41 0
 6-311+G(2d,p)
 ****
 1  2  3  4  5  16  17  18  19  20  21  22  23  24  25 0
 3-21G
 ****
 27  28  30  31  32  35  37  42  43  44  45  46  47 0
 3-21G
 ****
 48  49 0
 3-21G
 ****


