%nproc=1
%NoSave
%Mem=1900MB
#P OB98/GEN NMR

erre ene a

0 1
  C      761.218     297.515    -195.450
  O      761.511     296.128    -195.543
  P      761.505     295.371    -196.961
  C      759.196     294.274    -196.660
  O      759.954     295.247    -197.354
  C      757.776     294.182    -197.237
  O      757.183     295.503    -197.182
  C      757.687     293.769    -198.713
  O      757.718     292.367    -198.925
  C      756.306     294.315    -199.066
  O      755.293     293.421    -198.575
  C      756.277     295.644    -198.305
  N      755.395     298.193    -202.655
  C      754.789     297.114    -202.096
  N      755.109     296.483    -200.947
  C      756.120     297.102    -200.324
  C      756.826     298.200    -200.756
  C      756.425     298.763    -202.001
  N      757.035     299.880    -202.545
  N      757.827     298.539    -199.871
  C      757.701     297.652    -198.887
  N      756.684     296.771    -199.117
  O      762.275     294.099    -196.983
  O      762.066     296.462    -197.993
  H      755.479     292.544    -198.940
  H      762.344     296.024    -198.813
  H      753.957     296.684    -202.656
  H      758.326     297.625    -198.016
  H      755.287     295.861    -197.890
  H      756.160     294.396    -200.161
  H      758.448     294.281    -199.321
  H      757.183     293.516    -196.606
  H      759.133     294.565    -195.602
  H      756.585     300.274    -203.367
  H      757.679     300.399    -201.988
  H      759.700     293.307    -196.715
  P      758.322     291.845    -200.327
  C      755.999     291.653    -201.541
  O      757.261     292.294    -201.446
  O      758.685     290.404    -200.350
  O      759.553     292.835    -200.572
  H      759.320     293.771    -200.735
  H      755.376     292.198    -202.257
  H      755.505     291.625    -200.572
  H      756.148     290.626    -201.929
  H      761.274     297.824    -194.427
  H      760.232     297.697    -195.824
  H      761.927     298.069    -196.029

 3  4  5  6  7  8  9  10  11  12  22  25  29  30  31  32 0
 6-311+G(2d,p)
 ****
 33  36  37 0
 6-311+G(2d,p)
 ****
 1  2  13  14  15  16  17  18  19  20  21  23  24  26 0
 3-21G
 ****
 27  28  34  35  38  39  40  41  42  43  44  45  46  47  48 0
 3-21G
 ****


