%nproc=1
%NoSave
%Mem=1900MB
#P OB98/GEN NMR

erre ene a

0 1
  C      -41.195    -219.076      40.774
  O      -41.172    -220.473      40.570
  H      -40.681    -218.847      41.713
  H      -42.227    -218.721      40.843
  H      -40.680    -218.563      39.956
  P      -41.880    -221.022      39.240
  C      -39.875    -220.869      37.601
  O      -40.718    -221.716      38.366
  C      -38.644    -221.638      37.115
  O      -37.859    -222.046      38.272
  C      -38.979    -222.906      36.315
  O      -38.024    -223.048      35.256
  C      -38.764    -224.021      37.327
  O      -38.506    -225.272      36.700
  C      -37.592    -223.455      38.124
  N      -36.116    -227.713      40.367
  C      -36.089    -227.344      39.037
  N      -35.594    -228.250      38.161
  N      -36.515    -226.189      38.596
  C      -36.955    -225.368      39.583
  C      -37.045    -225.617      40.932
  C      -36.592    -226.911      41.402
  O      -36.610    -227.303      42.567
  N      -37.584    -224.542      41.600
  C      -37.817    -223.650      40.654
  N      -37.449    -224.103      39.414
  O      -42.213    -219.689      38.416
  O      -43.090    -221.864      39.456
  H      -37.712    -225.165      36.133
  H      -43.008    -219.808      37.867
  H      -35.790    -228.619      40.649
  H      -38.252    -222.670      40.809
  H      -36.637    -223.573      37.598
  H      -39.654    -224.127      37.960
  H      -35.222    -229.147      38.430
  H      -39.989    -222.909      35.899
  H      -35.555    -227.991      37.181
  H      -38.014    -220.959      36.533
  H      -39.556    -220.024      38.220
  H      -40.433    -220.485      36.739
  P      -38.566    -223.518      33.821
  C      -39.590    -221.555      32.464
  O      -38.422    -222.297      32.789
  O      -40.150    -223.622      34.056
  O      -38.003    -224.821      33.361
  H      -40.418    -224.560      34.074
  H      -39.339    -220.780      31.770
  H      -39.995    -221.120      33.354
  H      -40.315    -222.207      32.023

 6  7  8  9  10  11  12  13  14  15  26  29  33  34 0
 6-311+G(2d,p)
 ****
 36  38  39  40  41 0
 6-311+G(2d,p)
 ****
 1  2  3  4  5  16  17  18  19  20  21  22  23  24  25 0
 3-21G
 ****
 27  28  30  31  32  35  37  42  43  44  45  46  47 0
 3-21G
 ****
 48  49 0
 3-21G
 ****


