%nproc=1
%NoSave
%Mem=1900MB
#P OB98/GEN NMR

erre ene a

0 1
  C       25.413     140.268      66.679
  O       26.283     140.007      67.757
  P       25.725     139.953      69.263
  C       24.305     141.645      70.581
  O       25.385     141.467      69.668
  C       23.951     143.125      70.696
  O       23.192     143.579      69.537
  C       23.056     143.463      71.879
  O       23.591     143.291      73.172
  C       22.578     144.858      71.506
  O       23.558     145.844      71.837
  C       22.432     144.729      69.967
  N       21.029     144.629      69.557
  C       20.366     145.839      69.382
  O       20.893     146.941      69.546
  N       19.050     145.747      69.023
  C       18.333     144.592      68.879
  O       17.136     144.587      68.603
  C       19.083     143.348      69.100
  C       20.378     143.423      69.425
  O       26.593     139.226      70.232
  O       24.262     139.310      69.090
  H       23.147     146.717      71.721
  H       23.663     139.820      68.519
  H       18.536     146.612      68.904
  H       18.545     142.414      68.983
  H       20.956     142.517      69.590
  H       22.874     145.603      69.469
  H       21.656     145.128      72.031
  H       22.174     142.801      71.840
  H       24.882     143.703      70.715
  H       24.612     141.273      71.565
  H       23.440     141.052      70.253
  P       22.695     143.056      74.475
  C       20.763     144.444      75.496
  O       22.046     144.449      74.908
  O       23.297     142.206      75.552
  O       21.433     142.277      73.861
  H       21.071     141.666      74.526
  H       20.456     145.479      75.681
  H       20.778     143.913      76.445
  H       20.033     143.987      74.819
  H       25.968     140.263      65.764
  H       24.956     141.226      66.814
  H       24.656     139.513      66.641

 3  4  5  6  7  8  9  10  11  12  13  23  28  29  30  31  32 0
 6-311+G(2d,p)
 ****
 33  34 0
 6-311+G(2d,p)
 ****
 1  2  14  15  16  17  18  19  20  21  22  24  25  26  27 0
 3-21G
 ****
 35  36  37  38  39  40  41  42  43  44  45 0
 3-21G
 ****


