%nproc=1
%NoSave
%Mem=1900MB
#P OB98/GEN NMR

erre ene a

0 1
  C        4.685     282.590    1142.336
  O        4.495     281.467    1143.168
  P        3.014     281.258    1143.771
  C        4.210     279.316    1145.010
  O        3.151     280.276    1145.033
  C        4.008     278.310    1146.146
  O        2.693     277.661    1146.037
  C        5.037     277.131    1146.158
  O        6.281     277.546    1146.653
  C        4.282     276.135    1147.044
  O        4.432     276.486    1148.441
  C        2.807     276.337    1146.609
  N       -0.679     272.754    1145.464
  C       -0.515     273.534    1146.574
  N        0.441     274.458    1146.806
  C        1.306     274.529    1145.771
  C        1.250     273.785    1144.589
  C        0.216     272.870    1144.452
  N        0.045     272.069    1143.341
  N        2.280     274.103    1143.759
  C        2.947     275.050    1144.415
  N        2.365     275.365    1145.607
  O        2.257     280.354    1142.667
  O        2.251     282.530    1144.034
  H        3.957     275.828    1148.955
  H        1.303     280.600    1142.604
  H       -1.253     273.390    1147.347
  H        3.826     275.582    1144.022
  H        2.095     276.285    1147.452
  H        4.638     275.106    1146.894
  H        5.113     276.713    1145.143
  H        4.048     278.832    1147.112
  H        5.183     279.809    1145.169
  H       -0.663     271.338    1143.400
  H        0.776     272.041    1142.641
  H        4.219     278.794    1144.049
  P        7.562     277.409    1145.668
  C        8.313     279.591    1146.798
  O        8.678     278.283    1146.372
  O        7.097     278.326    1144.430
  O        7.919     275.985    1145.316
  H        6.755     279.184    1144.708
  H        9.132     280.049    1147.288
  H        7.447     279.544    1147.487
  H        8.027     280.201    1145.908
  H        5.701     282.618    1142.002
  H        4.465     283.482    1142.885
  H        4.033     282.522    1141.490

 3  4  5  6  7  8  9  10  11  12  22  25  29  30  31  32 0
 6-311+G(2d,p)
 ****
 33  36  37 0
 6-311+G(2d,p)
 ****
 1  2  13  14  15  16  17  18  19  20  21  23  24  26 0
 3-21G
 ****
 27  28  34  35  38  39  40  41  42  43  44  45  46  47  48 0
 3-21G
 ****


