%nproc=1
%NoSave
%Mem=1900MB
#P OB98/GEN NMR

erre ene a

0 1
  C     -301.521      -6.338      69.997
  O     -302.669      -5.515      69.939
  H     -300.864      -5.968      70.789
  H     -300.980      -6.297      69.048
  H     -301.793      -7.373      70.225
  P     -303.889      -5.958      69.000
  C     -304.243      -6.225      66.458
  O     -303.446      -5.655      67.487
  C     -303.425      -6.349      65.174
  O     -302.437      -7.392      65.312
  C     -304.248      -6.719      63.944
  O     -304.978      -5.603      63.470
  C     -303.155      -7.218      63.012
  O     -302.475      -6.116      62.387
  C     -302.221      -7.956      63.999
  N     -302.424      -9.403      64.010
  C     -301.854     -10.118      62.962
  O     -301.236      -9.583      62.041
  N     -302.030     -11.481      63.000
  C     -302.774     -12.164      63.915
  O     -302.946     -13.380      63.873
  C     -303.385     -11.354      64.981
  C     -303.183     -10.033      64.980
  O     -305.230      -5.420      69.377
  O     -303.858      -7.559      69.069
  H     -302.103      -5.572      63.110
  H     -304.538      -7.876      69.691
  H     -301.633     -12.011      62.242
  H     -303.987     -11.865      65.724
  H     -303.627      -9.417      65.756
  H     -301.170      -7.761      63.747
  H     -303.541      -7.846      62.210
  H     -304.919      -7.557      64.176
  H     -302.893      -5.402      65.017
  H     -305.107      -5.572      66.279
  H     -304.599      -7.207      66.788
  P     -306.349      -5.804      62.672
  C     -307.047      -6.450      60.290
  O     -305.990      -6.445      61.241
  O     -307.233      -4.601      62.606
  O     -307.074      -7.011      63.437
  H     -307.814      -6.666      63.969
  H     -306.705      -6.895      59.379
  H     -307.361      -5.445      60.100
  H     -307.871      -7.014      60.675

 6  7  8  9  10  11  12  13  14  15  16  26  31  32  33  34  35 0
 6-311+G(2d,p)
 ****
 36  37 0
 6-311+G(2d,p)
 ****
 1  2  3  4  5  17  18  19  20  21  22  23  24  25 0
 3-21G
 ****
 27  28  29  30  38  39  40  41  42  43  44  45 0
 3-21G
 ****


