%nproc=1
%NoSave
%Mem=1900MB
#P OB98/GEN NMR

erre ene a

0 1
  C     -167.652     197.545     143.356
  O     -168.186     196.349     142.822
  H     -166.570     197.432     143.460
  H     -168.081     197.741     144.343
  H     -167.859     198.382     142.685
  P     -169.781     196.296     142.652
  C     -170.149     194.882     144.792
  O     -170.386     196.114     144.129
  C     -171.419     194.033     144.813
  O     -171.128     192.691     145.258
  C     -172.519     194.570     145.722
  O     -173.278     195.569     145.064
  C     -173.320     193.307     145.995
  O     -174.200     193.003     144.890
  C     -172.215     192.246     146.115
  N     -173.125     189.901     150.493
  C     -173.885     189.967     149.343
  N     -175.081     189.338     149.368
  N     -173.517     190.603     148.262
  C     -172.326     191.235     148.397
  C     -171.480     191.248     149.484
  C     -171.879     190.495     150.653
  O     -171.213     190.329     151.670
  N     -170.354     191.989     149.227
  C     -170.535     192.449     148.004
  N     -171.721     192.024     147.460
  O     -170.036     194.868     141.972
  O     -170.375     197.395     141.838
  H     -174.574     192.113     145.018
  H     -170.761     194.955     141.325
  H     -173.446     189.371     151.283
  H     -169.839     193.080     147.468
  H     -172.544     191.270     145.739
  H     -173.955     193.414     146.875
  H     -175.536     189.092     150.235
  H     -172.103     194.946     146.664
  H     -175.667     189.450     148.551
  H     -171.778     193.956     143.778
  H     -169.834     195.087     145.819
  H     -169.351     194.340     144.273
  P     -174.216     196.517     145.952
  C     -176.375     195.214     145.336
  O     -175.517     195.674     146.370
  O     -174.778     197.567     144.880
  O     -173.516     197.214     147.069
  H     -174.330     198.426     144.995
  H     -177.192     194.672     145.765
  H     -175.828     194.572     144.678
  H     -176.752     196.051     144.786

 6  7  8  9  10  11  12  13  14  15  26  29  33  34 0
 6-311+G(2d,p)
 ****
 36  38  39  40  41 0
 6-311+G(2d,p)
 ****
 1  2  3  4  5  16  17  18  19  20  21  22  23  24  25 0
 3-21G
 ****
 27  28  30  31  32  35  37  42  43  44  45  46  47 0
 3-21G
 ****
 48  49 0
 3-21G
 ****


