%nproc=1
%NoSave
%Mem=1900MB
#P OB98/GEN NMR

erre ene a

0 1
  C      -76.654     132.273     719.763
  O      -75.944     132.121     720.969
  H      -77.534     132.897     719.945
  H      -76.993     131.295     719.404
  H      -76.036     132.756     719.000
  P      -74.470     131.491     720.937
  C      -73.662     129.086     721.429
  O      -74.671     129.902     720.841
  C      -74.046     127.610     721.315
  O      -75.172     127.360     722.210
  C      -74.479     127.198     719.892
  O      -74.067     125.842     719.664
  C      -75.990     127.269     720.004
  O      -76.630     126.523     718.999
  C      -76.204     126.745     721.420
  N      -77.546     127.057     721.905
  C      -78.348     125.983     722.286
  O      -77.987     124.807     722.213
  N      -79.624     126.292     722.680
  C      -80.192     127.531     722.633
  O      -81.360     127.742     722.927
  C      -79.312     128.624     722.180
  C      -78.047     128.343     721.847
  O      -73.538     131.938     722.018
  O      -73.922     131.849     719.474
  H      -77.597     126.632     719.059
  H      -72.947     131.809     719.457
  H      -80.213     125.526     722.966
  H      -79.735     129.622     722.114
  H      -77.378     129.116     721.491
  H      -76.049     125.655     721.467
  H      -76.322     128.308     719.914
  H      -74.075     127.845     719.112
  H      -73.213     126.993     721.665
  H      -73.563     129.368     722.485
  H      -72.705     129.270     720.921
  P      -73.521     125.355     718.236
  C      -74.388     125.000     715.842
  O      -74.748     125.109     717.214
  O      -72.561     124.208     718.308
  O      -72.788     126.642     717.633
  H      -71.922     126.375     717.258
  H      -75.268     124.839     715.254
  H      -73.718     124.176     715.714
  H      -73.908     125.903     715.526

 6  7  8  9  10  11  12  13  14  15  16  26  31  32  33  34  35 0
 6-311+G(2d,p)
 ****
 36  37 0
 6-311+G(2d,p)
 ****
 1  2  3  4  5  17  18  19  20  21  22  23  24  25 0
 3-21G
 ****
 27  28  29  30  38  39  40  41  42  43  44  45 0
 3-21G
 ****


