%nproc=1
%NoSave
%Mem=1900MB
#P OB98/GEN NMR

erre ene a

0 1
  C     -244.819    -613.873    -335.184
  O     -246.088    -613.677    -335.772
  H     -244.495    -612.925    -334.741
  H     -244.102    -614.164    -335.951
  H     -244.852    -614.627    -334.395
  P     -246.931    -614.963    -336.232
  C     -249.074    -613.882    -335.291
  O     -248.227    -615.022    -335.293
  C     -249.619    -613.607    -333.883
  O     -248.514    -613.256    -333.007
  C     -250.652    -612.453    -333.832
  O     -251.567    -612.762    -332.774
  C     -249.770    -611.284    -333.451
  O     -250.527    -610.205    -332.950
  C     -248.816    -611.951    -332.457
  N     -247.596    -611.165    -332.231
  C     -247.445    -610.603    -330.969
  O     -248.284    -610.717    -330.073
  N     -246.314    -609.861    -330.762
  C     -245.376    -609.571    -331.720
  O     -244.389    -608.868    -331.494
  C     -245.611    -610.162    -333.046
  C     -246.680    -610.908    -333.246
  O     -246.164    -616.243    -336.320
  O     -247.558    -614.548    -337.650
  H     -249.947    -609.429    -332.787
  H     -247.658    -615.331    -338.214
  H     -246.181    -609.450    -329.854
  H     -244.884    -609.944    -333.827
  H     -246.889    -611.356    -334.210
  H     -249.299    -612.100    -331.489
  H     -249.210    -610.916    -334.325
  H     -251.184    -612.308    -334.767
  H     -250.053    -614.544    -333.495
  H     -249.902    -614.071    -335.978
  H     -248.504    -613.013    -335.642
  P     -252.739    -613.833    -332.938
  C     -252.798    -615.100    -330.704
  O     -252.400    -615.136    -332.075
  O     -253.111    -614.132    -334.356
  O     -253.997    -613.188    -332.168
  H     -254.832    -613.504    -332.567
  H     -252.522    -616.018    -330.228
  H     -253.859    -614.972    -330.644
  H     -252.311    -614.284    -330.213

 6  7  8  9  10  11  12  13  14  15  16  26  31  32  33  34  35 0
 6-311+G(2d,p)
 ****
 36  37 0
 6-311+G(2d,p)
 ****
 1  2  3  4  5  17  18  19  20  21  22  23  24  25 0
 3-21G
 ****
 27  28  29  30  38  39  40  41  42  43  44  45 0
 3-21G
 ****


