%nproc=1
%NoSave
%Mem=1900MB
#P OB98/GEN NMR

erre ene a

0 1
  C     -230.580     -39.981     -92.167
  O     -229.925     -38.807     -92.597
  P     -230.741     -37.483     -92.986
  C     -231.542     -36.420     -95.176
  O     -231.247     -37.638     -94.500
  C     -232.329     -36.672     -96.465
  O     -233.711     -36.997     -96.124
  C     -232.351     -35.484     -97.436
  O     -232.272     -36.015     -98.757
  C     -233.721     -34.865     -97.186
  O     -234.158     -34.076     -98.284
  C     -234.551     -36.120     -96.900
  N     -235.788     -35.814     -96.193
  C     -236.954     -36.413     -96.676
  O     -236.929     -37.056     -97.725
  N     -238.116     -36.259     -95.954
  C     -238.153     -35.424     -94.962
  N     -239.301     -35.355     -94.239
  C     -236.990     -34.586     -94.579
  C     -235.846     -34.856     -95.202
  O     -230.043     -36.197     -92.690
  O     -232.101     -37.607     -92.135
  H     -232.228     -36.785     -91.623
  H     -233.526     -33.341     -98.413
  H     -237.105     -33.814     -93.836
  H     -234.937     -34.312     -94.976
  H     -234.803     -36.638     -97.833
  H     -233.677     -34.218     -96.295
  H     -231.522     -34.788     -97.270
  H     -231.903     -37.560     -96.959
  H     -240.055     -35.974     -94.501
  H     -230.597     -35.939     -95.431
  H     -239.313     -34.988     -93.286
  H     -232.096     -35.748     -94.514
  P     -231.177     -35.401     -99.764
  C     -231.231     -33.405    -101.423
  O     -231.654     -33.932    -100.180
  O     -231.465     -36.246    -101.107
  O     -229.740     -35.565     -99.367
  H     -230.652     -36.265    -101.654
  H     -231.592     -32.378    -101.506
  H     -231.653     -33.992    -102.255
  H     -230.139     -33.399    -101.491
  H     -229.854     -40.739     -91.960
  H     -231.242     -40.322     -92.935
  H     -231.140     -39.772     -91.280

 3  4  5  6  7  8  9  10  11  12  13  24  27  28  29  30  32 0
 6-311+G(2d,p)
 ****
 34  35 0
 6-311+G(2d,p)
 ****
 1  2  14  15  16  17  18  19  20  21  22  23  25  26 0
 3-21G
 ****
 31  33  36  37  38  39  40  41  42  43  44  45  46 0
 3-21G
 ****


