%nproc=1
%NoSave
%Mem=1900MB
#P OB98/GEN NMR

erre ene a

0 1
  C      229.433     634.181     317.705
  O      228.220     633.461     317.835
  H      230.065     633.667     316.987
  H      229.950     634.220     318.669
  H      229.228     635.198     317.339
  P      227.147     634.052     318.874
  C      226.579     631.848     320.122
  O      226.138     632.844     319.222
  C      225.411     631.325     320.945
  O      224.876     632.359     321.800
  C      224.243     630.780     320.132
  O      224.478     629.445     319.725
  C      223.106     630.892     321.122
  O      223.090     629.792     322.060
  C      223.429     632.212     321.851
  N      219.001     634.522     321.056
  C      219.293     633.371     321.752
  N      218.234     632.689     322.255
  N      220.515     632.898     321.911
  C      221.459     633.654     321.309
  C      221.295     634.832     320.615
  C      219.958     635.359     320.472
  O      219.641     636.413     319.930
  N      222.499     635.319     320.183
  C      223.383     634.429     320.581
  N      222.792     633.382     321.267
  O      226.252     635.035     317.983
  O      227.721     634.759     320.061
  H      222.873     628.969     321.593
  H      225.930     635.768     318.534
  H      218.055     634.837     320.971
  H      224.452     634.474     320.413
  H      223.146     632.192     322.909
  H      222.123     630.887     320.638
  H      217.306     632.804     321.890
  H      224.041     631.433     319.274
  H      218.437     631.826     322.756
  H      225.806     630.532     321.618
  H      227.337     632.274     320.796
  H      227.036     631.024     319.547
  P      223.993     629.021     318.248
  C      223.333     626.722     319.284
  O      223.973     627.411     318.222
  O      225.252     629.389     317.317
  O      222.737     629.700     317.776
  H      224.974     629.430     316.379
  H      223.406     625.667     319.120
  H      222.302     627.006     319.323
  H      223.808     626.973     320.209

 6  7  8  9  10  11  12  13  14  15  26  29  33  34 0
 6-311+G(2d,p)
 ****
 36  38  39  40  41 0
 6-311+G(2d,p)
 ****
 1  2  3  4  5  16  17  18  19  20  21  22  23  24  25 0
 3-21G
 ****
 27  28  30  31  32  35  37  42  43  44  45  46  47 0
 3-21G
 ****
 48  49 0
 3-21G
 ****


