%nproc=1
%NoSave
%Mem=1900MB
#P OB98/GEN NMR

erre ene a

0 1
  C      312.842    -424.430    -155.858
  O      313.089    -424.859    -154.528
  H      312.500    -423.390    -155.828
  H      312.056    -425.035    -156.308
  H      313.752    -424.486    -156.459
  P      313.694    -426.323    -154.294
  C      315.745    -425.354    -153.080
  O      315.290    -426.152    -154.162
  C      316.644    -426.174    -152.158
  O      317.759    -426.697    -152.928
  C      317.226    -425.371    -150.986
  O      317.258    -426.208    -149.828
  C      318.641    -425.059    -151.436
  O      319.526    -424.859    -150.336
  C      318.976    -426.292    -152.281
  N      323.939    -425.562    -152.910
  C      323.222    -425.920    -151.779
  N      323.932    -426.085    -150.643
  N      321.927    -426.098    -151.772
  C      321.356    -425.913    -152.981
  C      321.950    -425.559    -154.167
  C      323.372    -425.349    -154.164
  O      324.058    -425.025    -155.132
  N      321.013    -425.441    -155.178
  C      319.866    -425.724    -154.597
  N      320.011    -426.008    -153.266
  O      313.264    -427.362    -155.277
  O      313.239    -426.692    -152.801
  H      319.213    -424.056    -149.853
  H      312.463    -427.276    -152.812
  H      324.929    -425.433    -152.859
  H      318.902    -425.732    -155.081
  H      319.342    -427.121    -151.664
  H      318.645    -424.146    -152.050
  H      324.930    -425.985    -150.583
  H      316.655    -424.464    -150.766
  H      323.435    -426.370    -149.802
  H      316.080    -427.039    -151.791
  H      314.871    -424.994    -152.522
  H      316.298    -424.490    -153.472
  P      317.134    -425.537    -148.381
  C      314.600    -425.131    -148.192
  O      315.877    -424.535    -148.400
  O      318.394    -424.966    -147.824
  O      316.606    -426.747    -147.471
  H      316.933    -426.626    -146.556
  H      313.844    -424.375    -148.225
  H      314.582    -425.612    -147.236
  H      314.415    -425.854    -148.958

 6  7  8  9  10  11  12  13  14  15  26  29  33  34 0
 6-311+G(2d,p)
 ****
 36  38  39  40  41 0
 6-311+G(2d,p)
 ****
 1  2  3  4  5  16  17  18  19  20  21  22  23  24  25 0
 3-21G
 ****
 27  28  30  31  32  35  37  42  43  44  45  46  47 0
 3-21G
 ****
 48  49 0
 3-21G
 ****


