%nproc=1
%NoSave
%Mem=1900MB
#P OB98/GEN NMR

erre ene a

0 1
  C      168.647    -336.578    -750.260
  O      168.869    -337.691    -749.415
  H      167.871    -335.936    -749.844
  H      169.577    -336.006    -750.331
  H      168.363    -336.912    -751.259
  P      167.627    -338.680    -749.179
  C      168.407    -338.667    -746.698
  O      167.314    -338.616    -747.607
  C      168.064    -337.893    -745.432
  O      167.564    -336.577    -745.772
  C      166.965    -338.535    -744.577
  O      167.475    -339.581    -743.762
  C      166.523    -337.342    -743.748
  O      167.491    -337.103    -742.704
  C      166.567    -336.209    -744.778
  N      161.827    -334.340    -744.264
  C      162.861    -334.420    -743.401
  N      164.094    -334.942    -743.617
  C      164.196    -335.401    -744.871
  C      163.233    -335.396    -745.856
  C      161.988    -334.820    -745.518
  N      160.926    -334.746    -746.390
  N      163.696    -335.991    -747.017
  C      164.938    -336.316    -746.735
  N      165.293    -335.997    -745.447
  O      168.258    -340.139    -749.369
  O      166.442    -338.452    -750.064
  H      168.369    -337.134    -743.124
  H      167.560    -340.785    -749.566
  H      162.677    -334.026    -742.408
  H      165.628    -336.794    -747.427
  H      166.871    -335.254    -744.344
  H      165.564    -337.494    -743.271
  H      166.120    -338.884    -745.199
  H      168.989    -337.758    -744.846
  H      169.286    -338.218    -747.175
  H      160.037    -334.488    -745.997
  H      160.984    -335.235    -747.276
  H      168.626    -339.717    -746.456
  P      166.849    -341.044    -743.964
  C      166.170    -341.015    -741.445
  O      165.760    -341.216    -742.804
  O      168.046    -342.013    -743.507
  O      166.376    -341.342    -745.348
  H      167.975    -342.888    -743.945
  H      165.334    -341.165    -740.794
  H      166.539    -340.017    -741.328
  H      166.943    -341.712    -741.199

 6  7  8  9  10  11  12  13  14  15  25  28  32  33  34  35 0
 6-311+G(2d,p)
 ****
 36  39  40 0
 6-311+G(2d,p)
 ****
 1  2  3  4  5  16  17  18  19  20  21  22  23  24 0
 3-21G
 ****
 26  27  29  30  31  37  38  41  42  43  44  45  46  47 0
 3-21G
 ****
 48 0
 3-21G
 ****


