%nproc=1
%NoSave
%Mem=1900MB
#P OB98/GEN NMR

erre ene a

0 1
  C      -28.495      74.592     -75.437
  O      -28.245      75.352     -76.608
  P      -27.498      76.764     -76.437
  C      -28.260      79.160     -75.748
  O      -28.645      77.852     -76.156
  C      -29.202      80.197     -76.342
  O      -29.145      80.178     -77.785
  C      -30.671      79.978     -75.999
  O      -31.002      80.468     -74.707
  C      -31.350      80.814     -77.073
  O      -31.331      82.205     -76.699
  C      -30.444      80.573     -78.287
  N      -33.812      79.548     -81.928
  C      -33.433      80.762     -81.389
  N      -34.092      81.853     -81.843
  N      -32.495      80.897     -80.488
  C      -31.931      79.721     -80.121
  C      -32.216      78.457     -80.583
  C      -33.266      78.319     -81.573
  O      -33.679      77.267     -82.049
  N      -31.427      77.515     -79.982
  C      -30.664      78.202     -79.157
  N      -30.959      79.540     -79.172
  O      -27.022      77.112     -77.925
  O      -26.363      76.758     -75.473
  H      -31.937      82.298     -75.935
  H      -26.329      77.803     -77.903
  H      -34.545      79.494     -82.615
  H      -29.896      77.774     -78.519
  H      -30.303      81.485     -78.878
  H      -32.398      80.538     -77.225
  H      -34.868      81.805     -82.490
  H      -30.955      78.924     -76.122
  H      -33.884      82.746     -81.420
  H      -28.870      81.188     -76.004
  H      -27.238      79.353     -76.085
  H      -28.273      79.213     -74.654
  P      -31.750      79.445     -73.718
  C      -33.757      77.871     -74.215
  O      -33.161      79.140     -74.414
  O      -32.125      80.370     -72.467
  O      -30.937      78.258     -73.323
  H      -32.203      79.829     -71.657
  H      -34.806      77.925     -74.524
  H      -33.718      77.575     -73.165
  H      -33.251      77.123     -74.829
  H      -28.994      73.683     -75.701
  H      -29.112      75.157     -74.770
  H      -27.567      74.362     -74.956

 3  4  5  6  7  8  9  10  11  12  23  26  30  31 0
 6-311+G(2d,p)
 ****
 33  35  36  37  38 0
 6-311+G(2d,p)
 ****
 1  2  13  14  15  16  17  18  19  20  21  22  24  25 0
 3-21G
 ****
 27  28  29  32  34  39  40  41  42  43  44  45  46  47  48  49 0
 3-21G
 ****


