%nproc=1
%NoSave
%Mem=1900MB
#P OB98/GEN NMR

erre ene a

0 1
  C      -43.170    -230.259     301.614
  O      -43.627    -231.046     302.695
  H      -42.100    -230.076     301.744
  H      -43.688    -229.296     301.603
  H      -43.324    -230.776     300.664
  P      -45.151    -231.546     302.698
  C      -45.674    -229.541     304.220
  O      -45.834    -230.937     304.020
  C      -46.660    -229.034     305.272
  O      -48.005    -229.134     304.739
  C      -46.612    -229.819     306.587
  O      -46.803    -228.905     307.666
  C      -47.809    -230.745     306.486
  O      -48.312    -231.123     307.766
  C      -48.790    -229.903     305.671
  N      -52.959    -232.702     306.223
  C      -52.285    -231.917     307.137
  N      -52.774    -231.892     308.395
  N      -51.217    -231.222     306.845
  C      -50.844    -231.329     305.547
  C      -51.427    -232.071     304.548
  C      -52.599    -232.849     304.886
  O      -53.231    -233.571     304.122
  N      -50.739    -231.940     303.365
  C      -49.741    -231.125     303.654
  N      -49.756    -230.735     304.966
  O      -45.345    -233.018     302.527
  O      -45.835    -230.713     301.515
  H      -49.196    -231.524     307.621
  H      -45.913    -231.260     300.711
  H      -53.770    -233.226     306.504
  H      -48.983    -230.795     302.957
  H      -49.366    -229.210     306.296
  H      -47.529    -231.656     305.943
  H      -53.602    -232.391     308.687
  H      -45.677    -230.367     306.723
  H      -52.309    -231.306     309.077
  H      -46.466    -227.967     305.444
  H      -45.860    -229.032     303.266
  H      -44.647    -229.333     304.536
  P      -45.514    -228.277     308.384
  C      -45.842    -229.906     310.352
  O      -45.632    -228.554     309.959
  O      -45.185    -226.869     308.006
  O      -44.341    -229.282     307.943
  H      -43.502    -228.786     307.902
  H      -45.903    -229.962     311.419
  H      -45.026    -230.508     310.010
  H      -46.754    -230.265     309.923

 6  7  8  9  10  11  12  13  14  15  26  29  33  34 0
 6-311+G(2d,p)
 ****
 36  38  39  40  41 0
 6-311+G(2d,p)
 ****
 1  2  3  4  5  16  17  18  19  20  21  22  23  24  25 0
 3-21G
 ****
 27  28  30  31  32  35  37  42  43  44  45  46  47 0
 3-21G
 ****
 48  49 0
 3-21G
 ****


