%nproc=1
%NoSave
%Mem=1900MB
#P OB98/GEN NMR

erre ene a

0 1
  C      222.393     171.494    -320.536
  O      221.853     171.874    -319.266
  P      221.133     173.311    -319.189
  C      218.732     172.359    -319.512
  O      219.633     173.069    -318.671
  C      217.507     173.215    -319.830
  O      216.698     172.598    -320.848
  C      216.569     173.421    -318.651
  O      217.041     174.434    -317.774
  C      215.300     173.873    -319.361
  O      215.375     175.280    -319.655
  C      215.335     173.052    -320.660
  N      210.531     171.441    -320.528
  C      211.034     172.727    -320.551
  N      210.124     173.727    -320.566
  N      212.310     173.010    -320.554
  C      213.101     171.910    -320.569
  C      212.725     170.588    -320.548
  C      211.309     170.289    -320.510
  O      210.811     169.169    -320.458
  N      213.812     169.755    -320.578
  C      214.846     170.571    -320.648
  N      214.466     171.890    -320.628
  O      220.934     173.696    -320.731
  O      221.919     174.343    -318.453
  H      215.472     175.747    -318.801
  H      220.908     174.665    -320.833
  H      209.537     171.280    -320.517
  H      215.882     170.258    -320.715
  H      215.069     173.656    -321.533
  H      214.398     173.724    -318.756
  H      209.129     173.580    -320.635
  H      216.383     172.476    -318.124
  H      210.475     174.675    -320.618
  H      217.858     174.186    -320.203
  H      218.415     171.436    -319.022
  H      219.257     172.069    -320.428
  P      217.375     174.002    -316.265
  C      219.937     173.645    -316.060
  O      218.854     174.549    -315.982
  O      217.564     172.415    -316.377
  O      216.331     174.375    -315.267
  H      217.330     171.987    -315.533
  H      219.845     172.990    -316.930
  H      219.980     173.041    -315.148
  H      220.866     174.216    -316.150
  H      222.842     170.526    -320.458
  H      223.133     172.206    -320.837
  H      221.609     171.466    -321.263

 3  4  5  6  7  8  9  10  11  12  23  26  30  31  33  0
 6-311+G(2d,p)
 ****
 35  36  37  38 0
 6-311+G(2d,p)
 ****
 1  2  13  14  15  16  17  18  19  20  21  22  24  25  27  28  29 0
 3-21G
 ****
 32  34  39  40  41  42  43  44  45  46  47  48  49 0
 3-21G
 ****


