%nproc=1
%NoSave
%Mem=1900MB
#P OB98/GEN NMR

erre ene a

0 1
  C     -250.511    -592.181     431.405
  O     -250.281    -593.473     431.935
  H     -250.038    -592.117     430.420
  H     -250.055    -591.423     432.052
  H     -251.581    -591.985     431.294
  P     -251.035    -593.902     433.279
  C     -248.834    -594.833     434.258
  O     -250.188    -595.108     433.918
  C     -248.054    -596.133     434.408
  O     -248.708    -596.999     435.370
  C     -247.950    -596.952     433.116
  O     -246.998    -596.382     432.240
  C     -247.580    -598.315     433.678
  O     -246.183    -598.382     433.981
  C     -248.434    -598.360     434.972
  N     -249.675    -599.118     434.814
  C     -249.567    -600.510     434.825
  O     -248.484    -601.090     434.908
  N     -250.739    -601.208     434.700
  C     -251.981    -600.658     434.497
  O     -252.994    -601.337     434.345
  C     -252.038    -599.191     434.471
  C     -250.903    -598.508     434.628
  O     -252.501    -594.162     433.148
  O     -250.736    -592.684     434.284
  H     -245.709    -598.318     433.127
  H     -251.512    -592.096     434.325
  H     -250.682    -602.211     434.694
  H     -253.000    -598.734     434.303
  H     -250.925    -597.415     434.595
  H     -247.864    -598.821     435.789
  H     -247.790    -599.131     432.975
  H     -248.939    -597.023     432.635
  H     -247.051    -595.895     434.797
  H     -248.818    -594.283     435.211
  H     -248.390    -594.203     433.477
  P     -247.480    -595.533     430.973
  C     -246.272    -597.211     429.455
  O     -246.446    -595.831     429.769
  O     -247.718    -594.078     431.224
  O     -248.822    -596.257     430.492
  H     -249.594    -595.720     430.725
  H     -245.573    -597.308     428.650
  H     -247.212    -597.632     429.164
  H     -245.900    -597.728     430.315

 6  7  8  9  10  11  12  13  14  15  16  26  31  32  33  34  35 0
 6-311+G(2d,p)
 ****
 36  37 0
 6-311+G(2d,p)
 ****
 1  2  3  4  5  17  18  19  20  21  22  23  24  25 0
 3-21G
 ****
 27  28  29  30  38  39  40  41  42  43  44  45 0
 3-21G
 ****


