%nproc=1
%NoSave
%Mem=1900MB
#P OB98/GEN NMR

erre ene a

0 1
  C     -243.017     525.895     120.591
  O     -242.763     526.965     121.505
  P     -243.484     528.364     121.194
  C     -245.951     529.135     121.467
  O     -244.855     528.418     122.022
  C     -246.960     529.485     122.559
  O     -247.390     528.312     123.287
  C     -246.406     530.431     123.620
  O     -246.322     531.757     123.124
  C     -247.416     530.234     124.742
  O     -248.611     530.989     124.478
  C     -247.726     528.728     124.634
  N     -247.537     524.215     127.037
  C     -248.411     524.724     126.139
  N     -248.394     525.937     125.549
  C     -247.331     526.649     125.957
  C     -246.354     526.263     126.868
  C     -246.486     524.980     127.423
  N     -245.606     524.469     128.348
  N     -245.423     527.268     127.038
  C     -245.842     528.252     126.266
  N     -246.984     527.922     125.588
  O     -243.960     528.204     119.675
  O     -242.591     529.551     121.372
  H     -248.350     531.930     124.397
  H     -243.414     528.768     119.094
  H     -249.235     524.073     125.861
  H     -245.355     529.217     126.173
  H     -248.791     528.510     124.785
  H     -247.041     530.543     125.721
  H     -245.410     530.093     123.946
  H     -247.837     529.939     122.079
  H     -246.436     528.542     120.688
  H     -245.818     523.573     128.758
  H     -244.873     525.062     128.707
  H     -245.568     530.040     120.979
  P     -244.870     532.435     123.041
  C     -243.001     532.364     121.276
  O     -244.238     531.809     121.700
  O     -244.086     531.658     124.196
  O     -244.865     533.924     123.130
  H     -244.246     530.699     124.162
  H     -242.669     531.828     120.384
  H     -242.248     532.250     122.063
  H     -243.132     533.420     121.030
  H     -242.483     525.023     120.906
  H     -242.692     526.178     119.612
  H     -244.066     525.684     120.572

 3  4  5  6  7  8  9  10  11  12  22  25  29  30  31  32 0
 6-311+G(2d,p)
 ****
 33  36  37 0
 6-311+G(2d,p)
 ****
 1  2  13  14  15  16  17  18  19  20  21  23  24  26 0
 3-21G
 ****
 27  28  34  35  38  39  40  41  42  43  44  45  46  47  48 0
 3-21G
 ****


