%nproc=1
%NoSave
%Mem=1900MB
#P OB98/GEN NMR

erre ene a

0 1
  C       18.036      69.994    -263.011
  O       16.693      69.558    -263.142
  P       16.233      68.114    -262.609
  C       16.426      66.892    -264.877
  O       16.966      67.064    -263.573
  C       17.188      65.793    -265.614
  O       18.503      66.271    -265.964
  C       17.415      64.526    -264.799
  O       16.230      63.745    -264.728
  C       18.571      63.892    -265.562
  O       18.088      63.224    -266.736
  C       19.396      65.131    -265.970
  N       20.544      65.362    -265.095
  C       21.707      64.645    -265.395
  O       21.749      63.875    -266.354
  N       22.820      64.845    -264.616
  C       22.771      65.669    -263.612
  N       23.922      65.880    -262.920
  C       21.550      66.399    -263.231
  C       20.486      66.205    -264.011
  O       14.759      67.930    -262.492
  O       17.021      67.926    -261.232
  H       18.780      63.314    -267.419
  H       16.535      68.284    -260.448
  H       21.554      67.064    -262.378
  H       19.555      66.719    -263.809
  H       19.751      65.028    -267.002
  H       19.138      63.167    -264.971
  H       17.738      64.775    -263.781
  H       16.646      65.562    -266.541
  H       24.772      65.497    -263.323
  H       16.531      67.830    -265.429
  H       24.043      66.696    -262.331
  H       15.360      66.647    -264.800
  P       16.071      62.745    -263.484
  C       17.234      60.783    -264.720
  O       17.266      61.680    -263.625
  O       14.752      61.917    -263.844
  O       15.973      63.424    -262.158
  H       13.990      62.256    -263.339
  H       18.213      60.304    -264.805
  H       17.023      61.314    -265.653
  H       16.479      60.012    -264.547
  H       18.134      70.976    -263.425
  H       18.682      69.320    -263.533
  H       18.305      70.015    -261.975

 3  4  5  6  7  8  9  10  11  12  13  23  27  28  29  30  32 0
 6-311+G(2d,p)
 ****
 34  35 0
 6-311+G(2d,p)
 ****
 1  2  14  15  16  17  18  19  20  21  22  24  25  26 0
 3-21G
 ****
 31  33  36  37  38  39  40  41  42  43  44  45  46 0
 3-21G
 ****


