%nproc=1
%NoSave
%Mem=1900MB
#P OB98/GEN NMR

erre ene a

0 1
  C      -94.631     147.793     -29.164
  O      -93.642     148.213     -30.092
  P      -93.611     149.764     -30.498
  C      -91.363     150.067     -29.256
  O      -92.707     150.506     -29.398
  C      -90.414     151.252     -29.123
  O      -89.055     150.754     -28.991
  C      -90.438     152.218     -30.318
  O      -90.429     153.568     -29.835
  C      -89.107     151.966     -31.004
  O      -88.668     153.096     -31.750
  C      -88.234     151.621     -29.798
  N      -83.273     152.375     -30.355
  C      -84.227     153.182     -29.770
  N      -83.805     154.384     -29.321
  N      -85.483     152.845     -29.638
  C      -85.756     151.602     -30.104
  C      -84.896     150.706     -30.695
  C      -83.522     151.117     -30.888
  O      -82.649     150.485     -31.480
  N      -85.538     149.538     -31.021
  C      -86.784     149.727     -30.632
  N      -86.977     150.983     -30.113
  O      -95.098     150.251     -30.160
  O      -93.262     150.044     -31.919
  H      -89.321     153.241     -32.460
  H      -95.505     150.645     -30.955
  H      -82.323     152.691     -30.447
  H      -87.581     149.003     -30.734
  H      -88.013     152.524     -29.214
  H      -89.209     151.115     -31.686
  H      -82.847     154.692     -29.358
  H      -91.286     152.074     -30.995
  H      -84.486     154.981     -28.868
  H      -90.650     151.784     -28.192
  H      -91.082     149.480     -30.138
  H      -91.292     149.427     -28.371
  P      -91.262     154.632     -30.704
  C      -93.403     154.176     -29.295
  O      -92.795     154.196     -30.572
  O      -90.885     154.253     -32.211
  O      -90.953     156.055     -30.376
  H      -91.000     155.025     -32.796
  H      -92.769     154.631     -28.528
  H      -93.607     153.140     -29.014
  H      -94.347     154.724     -29.342
  H      -94.532     146.742     -28.989
  H      -95.603     147.999     -29.561
  H      -94.503     148.322     -28.243

 3  4  5  6  7  8  9  10  11  12  23  26  30  31  33  0
 6-311+G(2d,p)
 ****
 35  36  37  38 0
 6-311+G(2d,p)
 ****
 1  2  13  14  15  16  17  18  19  20  21  22  24  25  27  28  29 0
 3-21G
 ****
 32  34  39  40  41  42  43  44  45  46  47  48  49 0
 3-21G
 ****


