%nproc=1
%NoSave
%Mem=1900MB
#P OB98/GEN NMR

erre ene a

0 1
  C      229.325      64.953     464.610
  O      229.831      65.297     463.319
  P      229.198      66.561     462.565
  C      230.522      68.177     464.084
  O      230.187      67.814     462.747
  C      230.506      69.706     464.247
  O      230.726      70.030     465.647
  C      231.601      70.449     463.474
  O      231.326      70.857     462.135
  C      231.737      71.728     464.299
  O      230.723      72.671     463.904
  C      231.473      71.261     465.729
  N      235.661      73.515     467.616
  C      234.623      73.998     466.900
  N      233.547      73.328     466.435
  C      233.599      72.036     466.789
  C      234.593      71.404     467.519
  C      235.670      72.201     467.941
  N      236.734      71.710     468.658
  N      234.304      70.064     467.676
  C      233.165      69.888     467.036
  N      232.691      71.052     466.495
  O      227.758      66.836     462.842
  O      229.416      66.187     461.020
  H      230.732      72.696     462.927
  H      228.641      66.493     460.508
  H      234.663      75.058     466.667
  H      232.650      68.941     466.939
  H      230.863      71.977     466.293
  H      232.701      72.223     464.148
  H      232.545      69.892     463.498
  H      229.521      70.089     463.959
  H      231.513      67.790     464.331
  H      237.488      72.338     468.883
  H      236.784      70.720     468.859
  H      229.812      67.681     464.746
  P      232.254      70.395     460.914
  C      230.959      68.222     460.255
  O      231.298      69.552     459.940
  O      233.510      69.700     461.304
  O      232.472      71.759     460.109
  H      231.673      72.105     459.677
  H      230.141      67.903     459.597
  H      230.629      68.137     461.292
  H      231.820      67.570     460.086
  H      229.845      64.094     464.979
  H      228.280      64.734     464.537
  H      229.471      65.774     465.281

 3  4  5  6  7  8  9  10  11  12  22  25  29  30  31  32 0
 6-311+G(2d,p)
 ****
 33  36  37 0
 6-311+G(2d,p)
 ****
 1  2  13  14  15  16  17  18  19  20  21  23  24  26 0
 3-21G
 ****
 27  28  34  35  38  39  40  41  42  43  44  45  46  47  48 0
 3-21G
 ****


