%nproc=1
%NoSave
%Mem=1900MB
#P OB98/GEN NMR

erre ene a

0 1
  C     -463.912    1156.332    -432.279
  O     -463.789    1155.086    -432.931
  H     -464.868    1156.778    -432.534
  H     -463.113    1157.007    -432.628
  H     -463.846    1156.216    -431.197
  P     -462.523    1154.185    -432.542
  C     -463.953    1152.023    -432.153
  O     -462.938    1152.665    -432.880
  C     -464.802    1151.140    -433.081
  O     -465.799    1151.961    -433.738
  C     -463.988    1150.411    -434.160
  O     -464.564    1149.125    -434.385
  C     -464.200    1151.279    -435.396
  O     -463.996    1150.552    -436.605
  C     -465.637    1151.780    -435.178
  N     -465.935    1153.005    -435.902
  C     -467.190    1153.059    -436.554
  O     -467.949    1152.085    -436.494
  N     -467.499    1154.170    -437.298
  C     -466.649    1155.120    -437.433
  N     -467.013    1156.193    -438.175
  C     -465.310    1155.104    -436.795
  C     -465.018    1154.026    -436.054
  O     -462.557    1154.243    -430.944
  O     -461.229    1154.653    -433.152
  H     -464.450    1149.684    -436.511
  H     -463.441    1154.105    -430.573
  H     -464.608    1155.923    -436.953
  H     -464.073    1153.922    -435.559
  H     -466.350    1150.997    -435.474
  H     -463.497    1152.127    -435.379
  H     -462.931    1150.312    -433.880
  H     -465.352    1150.405    -432.456
  H     -467.940    1156.163    -438.614
  H     -464.613    1152.754    -431.669
  H     -466.407    1156.961    -438.395
  H     -463.487    1151.406    -431.364
  P     -463.799    1148.052    -435.296
  C     -463.247    1146.323    -433.458
  O     -463.966    1146.585    -434.646
  O     -462.406    1148.440    -435.668
  O     -464.732    1147.979    -436.599
  H     -464.147    1147.942    -437.384
  H     -463.445    1145.322    -433.135
  H     -463.553    1147.011    -432.697
  H     -462.199    1146.438    -433.643

 6  7  8  9  10  11  12  13  14  15  16  26  30  31  32  33  35 0
 6-311+G(2d,p)
 ****
 37  38 0
 6-311+G(2d,p)
 ****
 1  2  3  4  5  17  18  19  20  21  22  23  24  25 0
 3-21G
 ****
 27  28  29  34  36  39  40  41  42  43  44  45  46 0
 3-21G
 ****


