%nproc=1
%NoSave
%Mem=1900MB
#P OB98/GEN NMR

erre ene a

0 1
  C      242.519     526.674     511.500
  O      243.252     527.218     510.423
  H      241.606     526.222     511.109
  H      242.252     527.463     512.205
  H      243.105     525.903     512.007
  P      244.728     527.768     510.753
  C      245.654     530.162     511.320
  O      244.526     529.309     511.160
  C      245.206     531.542     511.797
  O      244.563     532.236     510.703
  C      244.217     531.512     512.973
  O      244.503     532.603     513.845
  C      242.862     531.718     512.302
  O      241.896     532.250     513.206
  C      243.249     532.637     511.137
  N      242.285     532.563     510.028
  C      241.368     533.617     509.930
  O      241.378     534.539     510.748
  N      240.436     533.586     508.921
  C      240.375     532.558     508.122
  N      239.414     532.576     507.169
  C      241.284     531.403     508.236
  C      242.215     531.480     509.188
  O      245.381     527.840     509.294
  O      245.483     526.938     511.735
  H      242.365     532.785     513.876
  H      244.776     528.186     508.610
  H      241.178     530.558     507.566
  H      242.929     530.669     509.332
  H      243.310     533.685     511.465
  H      242.480     530.765     511.926
  H      244.242     530.574     513.524
  H      246.100     532.133     512.057
  H      238.790     533.370     507.140
  H      246.195     530.258     510.374
  H      239.243     531.809     506.534
  H      246.325     529.700     512.050
  P      245.044     532.291     515.318
  C      244.072     531.802     517.659
  O      243.797     532.237     516.328
  O      246.197     533.139     515.786
  O      245.485     530.751     515.233
  H      246.311     530.640     515.757
  H      243.168     531.809     518.231
  H      244.784     532.461     518.110
  H      244.471     530.809     517.635

 6  7  8  9  10  11  12  13  14  15  16  26  30  31  32  33  35 0
 6-311+G(2d,p)
 ****
 37  38 0
 6-311+G(2d,p)
 ****
 1  2  3  4  5  17  18  19  20  21  22  23  24  25 0
 3-21G
 ****
 27  28  29  34  36  39  40  41  42  43  44  45  46 0
 3-21G
 ****


