%nproc=1
%NoSave
%Mem=1900MB
#P OB98/GEN NMR

erre ene a

0 1
  C      223.037      37.448    -234.707
  O      223.341      38.353    -235.773
  P      222.548      38.110    -237.148
  C      220.211      39.139    -236.681
  O      221.478      39.299    -237.307
  C      219.568      40.501    -236.386
  O      220.179      41.120    -235.215
  C      219.695      41.508    -237.547
  O      218.495      42.296    -237.541
  C      220.891      42.343    -237.110
  O      220.999      43.572    -237.811
  C      220.605      42.445    -235.615
  N      222.546      46.316    -232.908
  C      221.387      46.179    -233.586
  N      220.942      45.112    -234.287
  C      221.837      44.111    -234.240
  C      223.066      44.099    -233.593
  C      223.418      45.273    -232.897
  N      224.608      45.429    -232.223
  N      223.715      42.888    -233.796
  C      222.919      42.221    -234.611
  N      221.743      42.879    -234.835
  O      221.647      36.820    -236.839
  O      223.443      37.907    -238.327
  H      221.738      44.100    -237.441
  H      222.067      36.019    -237.203
  H      220.725      47.044    -233.562
  H      223.143      41.261    -235.063
  H      219.781      43.134    -235.396
  H      221.812      41.778    -237.290
  H      219.814      41.040    -238.527
  H      218.505      40.341    -236.153
  H      220.322      38.586    -235.746
  H      224.772      46.310    -231.757
  H      225.287      44.678    -232.204
  H      219.568      38.527    -237.326
  P      217.730      42.545    -238.930
  C      215.830      40.886    -238.441
  O      216.185      42.252    -238.602
  O      218.141      41.219    -239.737
  O      218.054      43.822    -239.641
  H      217.980      40.419    -239.201
  H      214.781      40.833    -238.144
  H      216.449      40.424    -237.666
  H      215.957      40.357    -239.389
  H      223.619      37.702    -233.846
  H      223.268      36.448    -235.011
  H      221.997      37.517    -234.467

 3  4  5  6  7  8  9  10  11  12  22  25  29  30  31  32 0
 6-311+G(2d,p)
 ****
 33  36  37 0
 6-311+G(2d,p)
 ****
 1  2  13  14  15  16  17  18  19  20  21  23  24  26 0
 3-21G
 ****
 27  28  34  35  38  39  40  41  42  43  44  45  46  47  48 0
 3-21G
 ****


