%nproc=1
%NoSave
%Mem=1900MB
#P OB98/GEN NMR

erre ene a

0 1
  C      622.677      19.129    -371.825
  O      623.878      18.385    -371.905
  H      622.697      19.955    -372.542
  H      621.838      18.472    -372.060
  H      622.545      19.524    -370.810
  P      625.240      19.162    -371.584
  C      626.256      17.497    -369.860
  O      626.306      18.025    -371.180
  C      627.192      16.303    -369.751
  O      626.637      15.176    -370.491
  C      628.585      16.534    -370.337
  O      629.429      17.222    -369.435
  C      629.040      15.093    -370.536
  O      629.437      14.532    -369.271
  C      627.755      14.428    -371.045
  N      629.463      12.239    -375.350
  C      629.790      12.065    -374.052
  N      629.305      12.671    -372.963
  C      628.370      13.583    -373.326
  C      627.925      13.885    -374.597
  C      628.522      13.163    -375.660
  N      628.200      13.355    -376.983
  N      626.977      14.893    -374.575
  C      626.823      15.162    -373.288
  N      627.642      14.404    -372.500
  O      624.934      19.894    -370.185
  O      625.711      20.120    -372.633
  H      629.696      13.601    -369.457
  H      625.554      20.639    -370.055
  H      630.563      11.311    -373.865
  H      626.144      15.911    -372.889
  H      627.656      13.386    -370.696
  H      629.901      15.016    -371.216
  H      628.535      17.037    -371.304
  H      627.253      16.008    -368.700
  H      625.231      17.188    -369.638
  H      628.810      12.927    -377.668
  H      627.612      14.136    -377.224
  H      626.559      18.285    -369.149
  P      630.648      18.064    -370.059
  C      631.293      19.392    -367.915
  O      631.649      18.361    -368.850
  O      629.985      19.490    -370.364
  O      631.263      17.451    -371.288
  H      630.449      19.943    -371.102
  H      632.054      19.474    -367.168
  H      630.362      19.145    -367.449
  H      631.198      20.324    -368.431

 6  7  8  9  10  11  12  13  14  15  25  28  32  33  34  35 0
 6-311+G(2d,p)
 ****
 36  39  40 0
 6-311+G(2d,p)
 ****
 1  2  3  4  5  16  17  18  19  20  21  22  23  24 0
 3-21G
 ****
 26  27  29  30  31  37  38  41  42  43  44  45  46  47 0
 3-21G
 ****
 48 0
 3-21G
 ****


