%nproc=1
%NoSave
%Mem=1900MB
#P OB98/GEN NMR

erre ene a

0 1
  C     -206.990    -930.812     -47.271
  O     -208.195    -930.802     -48.059
  P     -209.167    -929.534     -48.015
  C     -209.456    -929.518     -50.620
  O     -209.099    -928.796     -49.450
  C     -209.132    -928.709     -51.885
  O     -209.871    -927.462     -51.865
  C     -207.672    -928.308     -52.001
  O     -206.871    -929.385     -52.448
  C     -207.753    -927.158     -53.010
  O     -207.829    -927.669     -54.364
  C     -209.094    -926.498     -52.620
  N     -208.893    -925.242     -51.887
  C     -208.231    -924.216     -52.550
  O     -207.804    -924.347     -53.694
  N     -208.104    -923.042     -51.855
  C     -208.471    -922.822     -50.560
  O     -208.307    -921.763     -49.994
  C     -209.088    -923.980     -49.868
  C     -209.260    -925.110     -50.537
  O     -208.332    -928.512     -47.099
  O     -210.533    -929.759     -47.459
  H     -207.605    -926.936     -54.963
  H     -208.963    -927.897     -46.647
  H     -207.648    -922.283     -52.348
  H     -209.365    -923.871     -48.836
  H     -209.698    -925.973     -50.050
  H     -209.694    -926.268     -53.511
  H     -206.887    -926.508     -52.948
  H     -207.305    -927.925     -51.049
  H     -209.474    -929.277     -52.740
  H     -210.536    -929.765     -50.600
  H     -208.911    -930.473     -50.639
  P     -205.990    -930.141     -51.343
  C     -207.476    -932.285     -51.217
  O     -206.982    -931.131     -50.575
  O     -205.700    -928.945     -50.316
  O     -204.754    -930.775     -51.930
  H     -206.452    -928.308     -50.260
  H     -206.751    -932.725     -51.887
  H     -208.396    -932.038     -51.768
  H     -207.728    -933.007     -50.439
  H     -206.470    -931.734     -47.426
  H     -207.240    -930.713     -46.235
  H     -206.364    -929.996     -47.566

 3  4  5  6  7  8  9  10  11  12  13  23  28  29  30  31  32 0
 6-311+G(2d,p)
 ****
 33  34 0
 6-311+G(2d,p)
 ****
 1  2  14  15  16  17  18  19  20  21  22  24  25  26 0
 3-21G
 ****
 27  35  36  37  38  39  40  41  42  43  44  45 0
 3-21G
 ****


