%nproc=1
%NoSave
%Mem=1900MB
#P OB98/GEN NMR

erre ene a

0 1
  C      385.676     -30.761     -18.927
  O      384.787     -31.761     -18.475
  H      386.524     -30.709     -18.241
  H      385.171     -29.791     -18.935
  H      386.043     -31.000     -19.927
  P      383.508     -32.066     -19.394
  C      384.160     -34.357     -20.423
  O      384.037     -32.957     -20.625
  C      383.265     -35.125     -21.393
  O      383.775     -34.939     -22.749
  C      383.201     -36.638     -21.132
  O      381.879     -37.087     -21.456
  C      384.159     -37.202     -22.168
  O      383.911     -38.577     -22.456
  C      383.888     -36.251     -23.333
  N      385.931     -39.136     -26.914
  C      384.835     -39.354     -26.103
  N      384.175     -40.523     -26.271
  N      384.415     -38.501     -25.208
  C      385.148     -37.360     -25.170
  C      386.256     -37.025     -25.911
  C      386.724     -37.993     -26.882
  O      387.701     -37.864     -27.614
  N      386.731     -35.787     -25.555
  C      385.911     -35.377     -24.604
  N      384.935     -36.298     -24.336
  O      383.211     -30.640     -20.061
  O      382.317     -32.608     -18.678
  H      382.977     -38.660     -22.739
  H      382.549     -30.154     -19.535
  H      386.219     -39.832     -27.579
  H      385.981     -34.432     -24.080
  H      382.947     -36.481     -23.847
  H      385.195     -37.108     -21.818
  H      384.411     -41.204     -26.974
  H      383.453     -36.932     -20.109
  H      383.340     -40.682     -25.717
  H      382.264     -34.682     -21.369
  H      383.859     -34.593     -19.394
  H      385.204     -34.651     -20.563
  P      380.848     -37.322     -20.251
  C      379.964     -34.877     -20.303
  O      380.579     -35.910     -19.544
  O      381.740     -38.096     -19.166
  O      379.634     -38.106     -20.625
  H      381.171     -38.660     -18.612
  H      379.854     -34.004     -19.694
  H      379.001     -35.204     -20.635
  H      380.574     -34.646     -21.151

 6  7  8  9  10  11  12  13  14  15  26  29  33  34 0
 6-311+G(2d,p)
 ****
 36  38  39  40  41 0
 6-311+G(2d,p)
 ****
 1  2  3  4  5  16  17  18  19  20  21  22  23  24  25 0
 3-21G
 ****
 27  28  30  31  32  35  37  42  43  44  45  46  47 0
 3-21G
 ****
 48  49 0
 3-21G
 ****


