%nproc=1
%NoSave
%Mem=1900MB
#P OB98/GEN NMR

erre ene a

0 1
  C      -72.101     732.026    -250.233
  O      -71.212     733.037    -250.677
  P      -71.744     734.496    -251.074
  C      -70.804     735.362    -248.842
  O      -71.956     735.243    -249.672
  C      -70.195     736.758    -248.981
  O      -71.216     737.733    -248.689
  C      -69.049     737.083    -248.025
  O      -67.771     736.638    -248.464
  C      -69.086     738.608    -248.051
  O      -68.448     739.093    -249.247
  C      -70.590     738.893    -248.095
  N      -70.571     742.008    -244.032
  C      -69.920     742.065    -245.220
  N      -69.962     741.187    -246.241
  C      -70.815     740.186    -245.971
  C      -71.554     740.000    -244.810
  C      -71.405     740.977    -243.810
  N      -72.085     740.926    -242.612
  N      -72.308     738.847    -244.892
  C      -72.035     738.351    -246.081
  N      -71.152     739.131    -246.774
  O      -72.912     734.501    -251.991
  O      -70.463     735.227    -251.690
  H      -67.530     738.764    -249.236
  H      -70.739     736.015    -252.194
  H      -69.269     742.925    -245.367
  H      -72.454     737.438    -246.478
  H      -70.833     739.754    -248.721
  H      -68.557     739.055    -247.203
  H      -69.267     736.731    -247.006
  H      -69.887     736.899    -250.022
  H      -70.069     734.618    -249.172
  H      -72.020     741.732    -242.013
  H      -72.827     740.252    -242.512
  H      -71.072     735.149    -247.808
  P      -66.658     736.381    -247.329
  C      -67.147     733.804    -247.270
  O      -67.118     735.034    -246.580
  O      -66.383     737.550    -246.443
  O      -65.389     735.911    -248.186
  H      -65.482     735.055    -248.631
  H      -67.317     733.004    -246.550
  H      -66.194     733.619    -247.781
  H      -67.958     733.805    -248.005
  H      -71.549     731.134    -250.021
  H      -72.823     731.825    -250.997
  H      -72.602     732.355    -249.346

 3  4  5  6  7  8  9  10  11  12  22  25  29  30  31  32 0
 6-311+G(2d,p)
 ****
 33  36  37 0
 6-311+G(2d,p)
 ****
 1  2  13  14  15  16  17  18  19  20  21  23  24  26 0
 3-21G
 ****
 27  28  34  35  38  39  40  41  42  43  44  45  46  47  48 0
 3-21G
 ****


