%nproc=1
%NoSave
%Mem=1900MB
#P OB98/GEN NMR

erre ene a

0 1
  C     -892.420    -216.297    -159.273
  O     -893.100    -215.067    -159.565
  P     -894.710    -215.066    -159.553
  C     -894.800    -214.275    -157.068
  O     -895.160    -215.264    -158.031
  C     -896.040    -213.481    -156.621
  O     -897.040    -214.408    -156.163
  C     -895.790    -212.535    -155.469
  O     -895.170    -211.334    -155.906
  C     -897.180    -212.327    -154.910
  O     -897.890    -211.334    -155.635
  C     -897.840    -213.723    -155.116
  N     -897.920    -214.505    -153.893
  C     -899.070    -214.389    -153.165
  O     -899.990    -213.662    -153.491
  N     -899.140    -215.129    -152.010
  C     -898.130    -215.907    -151.486
  O     -898.250    -216.479    -150.414
  C     -896.890    -215.975    -152.280
  C     -896.840    -215.278    -153.436
  O     -895.110    -216.475    -160.221
  O     -895.330    -213.921    -160.261
  H     -897.420    -210.480    -155.456
  H     -895.920    -216.370    -160.747
  H     -900.000    -215.066    -151.472
  H     -896.100    -216.579    -151.909
  H     -895.940    -215.310    -154.048
  H     -898.830    -213.600    -155.533
  H     -897.180    -212.012    -153.857
  H     -895.160    -213.056    -154.693
  H     -896.420    -212.936    -157.491
  H     -894.090    -213.583    -157.520
  H     -894.300    -214.737    -156.212
  P     -894.220    -210.562    -154.850
  C     -891.920    -211.012    -156.038
  O     -892.770    -211.309    -154.971
  O     -894.850    -211.082    -153.472
  O     -894.230    -209.076    -155.035
  H     -895.170    -211.995    -153.528
  H     -891.980    -209.947    -156.331
  H     -892.190    -211.638    -156.910
  H     -890.900    -211.215    -155.713
  H     -891.363    -216.140    -159.319
  H     -892.702    -217.039    -159.990
  H     -892.689    -216.629    -158.292

 3  4  5  6  7  8  9  10  11  12  13  23  28  29  30  31  32 0
 6-311+G(2d,p)
 ****
 33  34 0
 6-311+G(2d,p)
 ****
 1  2  14  15  16  17  18  19  20  21  22  24  25  26 0
 3-21G
 ****
 27  35  36  37  38  39  40  41  42  43  44  45 0
 3-21G
 ****


