%nproc=1
%NoSave
%Mem=1900MB
#P OB98/GEN NMR

erre ene a

0 1
  C     -693.722     -90.325    -646.822
  O     -693.510     -90.439    -645.429
  P     -694.789     -90.747    -644.503
  C     -693.343     -92.416    -643.130
  O     -694.531     -92.215    -643.890
  C     -692.254     -93.029    -644.003
  O     -691.956     -92.156    -645.111
  C     -690.930     -93.255    -643.293
  O     -690.941     -94.448    -642.522
  C     -689.976     -93.377    -644.476
  O     -690.039     -94.721    -645.010
  C     -690.575     -92.380    -645.483
  N     -686.920     -89.652    -647.701
  C     -687.348     -90.946    -647.959
  N     -686.729     -91.597    -648.983
  N     -688.290     -91.548    -647.290
  C     -688.848     -90.768    -646.334
  C     -688.507     -89.479    -645.978
  C     -687.428     -88.839    -646.699
  O     -686.961     -87.730    -646.477
  N     -689.308     -89.014    -644.969
  C     -690.157     -89.994    -644.730
  N     -689.891     -91.101    -645.513
  O     -695.959     -90.996    -645.570
  O     -695.144     -89.675    -643.530
  H     -690.966     -94.886    -645.240
  H     -696.824     -90.802    -645.173
  H     -686.195     -89.235    -648.264
  H     -690.967     -89.963    -644.013
  H     -690.582     -92.799    -646.504
  H     -688.936     -93.185    -644.214
  H     -686.094     -91.138    -649.619
  H     -690.647     -92.386    -642.688
  H     -687.054     -92.527    -649.211
  H     -692.644     -93.976    -644.411
  H     -693.562     -93.092    -642.307
  H     -693.011     -91.445    -642.729
  P     -691.210     -94.269    -640.933
  C     -693.468     -95.542    -641.101
  O     -692.797     -94.336    -640.779
  O     -690.858     -92.727    -640.675
  O     -690.410     -95.187    -640.076
  H     -690.596     -92.594    -639.751
  H     -692.871     -96.421    -640.823
  H     -693.670     -95.575    -642.171
  H     -694.411     -95.585    -640.555
  H     -692.791     -90.121    -647.309
  H     -694.408     -89.526    -647.014
  H     -694.127     -91.241    -647.197

 3  4  5  6  7  8  9  10  11  12  23  26  30  31  33  0
 6-311+G(2d,p)
 ****
 35  36  37  38 0
 6-311+G(2d,p)
 ****
 1  2  13  14  15  16  17  18  19  20  21  22  24  25  27  28  29 0
 3-21G
 ****
 32  34  39  40  41  42  43  44  45  46  47  48  49 0
 3-21G
 ****


