%nproc=1
%NoSave
%Mem=1900MB
#P OB98/GEN NMR

erre ene a

0 1
  C       98.568     487.855    -324.818
  O       99.439     486.807    -324.429
  P      100.705     486.501    -325.369
  C      100.518     484.178    -326.593
  O      100.159     485.546    -326.537
  C       99.509     483.336    -325.802
  O       98.167     483.705    -326.173
  C       99.604     481.830    -326.048
  O      100.702     481.257    -325.360
  C       98.232     481.370    -325.571
  O       98.219     481.262    -324.137
  C       97.328     482.534    -326.024
  N       96.598     482.249    -327.258
  C       95.580     481.298    -327.161
  O       95.298     480.716    -326.118
  N       94.913     481.024    -328.327
  C       95.195     481.546    -329.557
  O       94.590     481.230    -330.581
  C       96.296     482.525    -329.600
  C       96.935     482.821    -328.470
  O      101.546     485.532    -324.415
  O      101.418     487.732    -325.813
  H      100.974     485.055    -323.789
  H       97.278     481.181    -323.878
  H       94.158     480.351    -328.284
  H       96.555     482.948    -330.561
  H       97.755     483.529    -328.486
  H       96.602     482.777    -325.241
  H       97.951     480.393    -325.979
  H       99.706     481.642    -327.126
  H       99.645     483.560    -324.734
  H      101.518     484.051    -326.166
  H      100.542     483.860    -327.641
  P      101.313     479.903    -325.991
  C      100.675     477.543    -325.054
  O      100.257     478.742    -325.667
  O      102.533     479.615    -324.993
  O      101.709     480.035    -327.431
  H      102.306     479.776    -324.061
  H       99.810     477.056    -324.602
  H      101.417     477.745    -324.270
  H      101.109     476.877    -325.803
  H       97.776     487.944    -324.104
  H       98.156     487.638    -325.781
  H       99.114     488.774    -324.862

 3  4  5  6  7  8  9  10  11  12  13  24  28  29  30  31  32 0
 6-311+G(2d,p)
 ****
 33  34 0
 6-311+G(2d,p)
 ****
 1  2  14  15  16  17  18  19  20  21  22  23  25  26  27 0
 3-21G
 ****
 35  36  37  38  39  40  41  42  43  44  45 0
 3-21G
 ****


