%nproc=1
%NoSave
%Mem=1900MB
#P OB98/GEN NMR

erre ene a

0 1
  C     -667.340    2754.071     153.820
  O     -668.214    2755.141     154.048
  H     -667.913    2753.243     153.343
  H     -666.929    2753.699     154.750
  H     -666.538    2754.360     153.127
  P     -667.617    2756.517     154.605
  C     -668.412    2758.260     152.835
  O     -667.320    2757.458     153.325
  C     -667.903    2759.228     151.756
  O     -666.920    2760.112     152.322
  C     -667.275    2758.501     150.540
  O     -667.630    2759.181     149.366
  C     -665.785    2758.636     150.804
  O     -665.016    2758.619     149.617
  C     -665.723    2759.999     151.528
  N     -660.687    2760.543     151.490
  C     -661.603    2760.577     150.438
  N     -661.073    2760.739     149.219
  N     -662.882    2760.435     150.602
  C     -663.238    2760.267     151.899
  C     -662.456    2760.232     153.011
  C     -661.035    2760.381     152.842
  O     -660.180    2760.352     153.733
  N     -663.219    2760.068     154.158
  C     -664.467    2759.989     153.720
  N     -664.531    2760.108     152.379
  O     -666.478    2756.385     155.547
  O     -668.864    2757.242     155.290
  H     -665.521    2759.133     148.931
  H     -668.789    2757.210     156.274
  H     -659.733    2760.652     151.321
  H     -665.332    2759.838     154.347
  H     -665.692    2760.841     150.833
  H     -665.424    2757.853     151.488
  H     -660.098    2760.883     149.017
  H     -667.571    2757.448     150.490
  H     -661.713    2760.796     148.428
  H     -668.760    2759.823     151.428
  H     -668.777    2758.822     153.695
  H     -669.191    2757.606     152.462
  P     -668.893    2758.655     148.490
  C     -670.145    2760.907     148.402
  O     -670.154    2759.558     148.856
  O     -669.102    2757.175     148.542
  O     -668.513    2759.137     147.007
  H     -668.883    2758.489     146.389
  H     -671.044    2761.395     148.715
  H     -670.084    2760.923     147.334
  H     -669.300    2761.417     148.816

 6  7  8  9  10  11  12  13  14  15  26  29  33  34 0
 6-311+G(2d,p)
 ****
 36  38  39  40  41 0
 6-311+G(2d,p)
 ****
 1  2  3  4  5  16  17  18  19  20  21  22  23  24  25 0
 3-21G
 ****
 27  28  30  31  32  35  37  42  43  44  45  46  47 0
 3-21G
 ****
 48  49 0
 3-21G
 ****


