%nproc=1
%NoSave
%Mem=1900MB
#P OB98/GEN NMR

erre ene a

0 1
  C      218.875     144.246    -285.892
  O      218.755     143.408    -284.760
  H      219.837     144.067    -286.381
  H      218.075     144.003    -286.596
  H      218.790     145.298    -285.610
  P      219.636     143.785    -283.473
  C      218.048     145.583    -282.476
  O      218.599     144.280    -282.346
  C      217.904     146.240    -281.104
  O      217.652     147.661    -281.298
  C      216.762     145.673    -280.246
  O      217.201     145.624    -278.884
  C      215.675     146.723    -280.377
  O      214.778     146.726    -279.271
  C      216.502     147.998    -280.499
  N      212.304     150.817    -279.974
  C      212.984     150.041    -279.104
  N      214.132     149.364    -279.313
  C      214.607     149.604    -280.546
  C      214.031     150.375    -281.540
  C      212.808     150.993    -281.219
  N      212.073     151.730    -282.119
  N      214.795     150.330    -282.690
  C      215.797     149.522    -282.403
  N      215.726     149.057    -281.120
  O      220.359     145.138    -283.936
  O      220.612     142.749    -283.034
  H      214.522     145.806    -279.069
  H      221.189     144.923    -284.397
  H      212.543     149.943    -278.115
  H      216.577     149.219    -283.088
  H      216.854     148.370    -279.528
  H      215.096     146.538    -281.290
  H      216.426     144.678    -280.561
  H      218.863     146.154    -280.576
  H      217.057     145.508    -282.937
  H      211.159     152.040    -281.833
  H      212.380     151.773    -283.082
  H      218.693     146.186    -283.123
  P      217.997     144.315    -278.412
  C      220.476     144.774    -279.054
  O      219.493     144.737    -278.026
  O      218.180     143.486    -279.770
  O      217.280     143.511    -277.373
  H      218.163     142.530    -279.587
  H      221.416     145.072    -278.638
  H      220.180     145.476    -279.805
  H      220.571     143.802    -279.492

 6  7  8  9  10  11  12  13  14  15  25  28  32  33  34  35 0
 6-311+G(2d,p)
 ****
 36  39  40 0
 6-311+G(2d,p)
 ****
 1  2  3  4  5  16  17  18  19  20  21  22  23  24 0
 3-21G
 ****
 26  27  29  30  31  37  38  41  42  43  44  45  46  47 0
 3-21G
 ****
 48 0
 3-21G
 ****


