%nproc=1
%NoSave
%Mem=1900MB
#P OB98/GEN NMR

erre ene a

0 1
  C       45.261      28.617      -1.752
  O       44.692      29.632      -2.548
  H       45.899      29.082      -0.996
  H       45.875      27.961      -2.376
  H       44.492      28.027      -1.246
  P       43.399      29.288      -3.425
  C       44.341      26.960      -4.014
  O       43.825      28.187      -4.513
  C       44.502      25.916      -5.120
  O       45.142      24.730      -4.598
  C       43.158      25.457      -5.685
  O       42.611      26.284      -6.695
  C       43.508      24.078      -6.238
  O       44.039      24.179      -7.569
  C       44.583      23.586      -5.267
  N       43.932      18.693      -3.953
  C       44.459      19.218      -5.116
  N       44.801      18.326      -6.072
  N       44.615      20.499      -5.323
  C       44.140      21.273      -4.319
  C       43.585      20.868      -3.126
  C       43.467      19.445      -2.884
  O       43.000      18.929      -1.873
  N       43.222      21.942      -2.350
  C       43.488      22.990      -3.103
  N       44.071      22.636      -4.297
  O       43.195      30.600      -4.325
  O       42.160      28.973      -2.645
  H       44.626      24.955      -7.607
  H       42.259      30.688      -4.577
  H       43.861      17.698      -3.836
  H       43.304      24.022      -2.824
  H       45.407      23.093      -5.797
  H       42.627      23.431      -6.297
  H       44.592      17.342      -6.004
  H       42.429      25.328      -4.879
  H       44.937      18.674      -7.023
  H       45.155      26.318      -5.903
  H       43.632      26.602      -3.264
  H       45.294      27.128      -3.505
  P       41.248      27.080      -6.428
  C       39.825      24.934      -6.050
  O       40.047      26.094      -6.820
  O       41.241      28.174      -7.595
  O       41.139      27.705      -5.080
  H       41.591      29.022      -7.264
  H       38.991      24.396      -6.449
  H       39.619      25.212      -5.037
  H       40.697      24.314      -6.080

 6  7  8  9  10  11  12  13  14  15  26  29  33  34 0
 6-311+G(2d,p)
 ****
 36  38  39  40  41 0
 6-311+G(2d,p)
 ****
 1  2  3  4  5  16  17  18  19  20  21  22  23  24  25 0
 3-21G
 ****
 27  28  30  31  32  35  37  42  43  44  45  46  47 0
 3-21G
 ****
 48  49 0
 3-21G
 ****


