%nproc=1
%NoSave
%Mem=1900MB
#P OB98/GEN NMR

erre ene a

0 1
  C     -256.313     -45.865     214.806
  O     -256.290     -44.525     214.335
  P     -254.859     -43.865     214.016
  C     -254.557     -43.282     216.541
  O     -254.018     -43.906     215.384
  C     -253.990     -41.871     216.700
  O     -254.685     -41.212     217.792
  C     -252.493     -41.810     217.016
  O     -251.983     -40.613     216.410
  C     -252.463     -41.668     218.529
  O     -251.239     -41.118     219.005
  C     -253.689     -40.785     218.750
  N     -253.922     -38.657     223.335
  C     -253.195     -38.276     222.217
  N     -252.479     -37.136     222.328
  N     -253.175     -38.956     221.099
  C     -253.953     -40.067     221.134
  C     -254.686     -40.563     222.191
  C     -254.727     -39.785     223.408
  O     -255.421     -40.036     224.393
  N     -255.272     -41.762     221.875
  C     -254.963     -41.943     220.606
  N     -254.201     -40.921     220.098
  O     -255.216     -42.316     213.834
  O     -254.132     -44.432     212.835
  H     -251.307     -41.034     219.981
  H     -255.365     -42.097     212.896
  H     -253.911     -38.083     224.162
  H     -255.258     -42.790     220.004
  H     -253.481     -39.724     218.578
  H     -252.595     -42.654     218.992
  H     -252.471     -36.552     223.146
  H     -251.930     -42.681     216.662
  H     -251.966     -36.823     221.516
  H     -254.210     -41.303     215.784
  H     -254.282     -43.869     217.422
  H     -255.650     -43.256     216.469
  P     -250.755     -40.752     215.384
  C     -249.041     -40.233     217.258
  O     -249.448     -41.122     216.235
  O     -250.489     -39.232     214.942
  O     -251.030     -41.606     214.193
  H     -250.163     -39.210     214.021
  H     -248.427     -40.782     217.979
  H     -249.898     -39.800     217.787
  H     -248.438     -39.427     216.824
  H     -257.326     -46.167     214.974
  H     -255.765     -45.930     215.723
  H     -255.866     -46.507     214.076

 3  4  5  6  7  8  9  10  11  12  23  26  30  31 0
 6-311+G(2d,p)
 ****
 33  35  36  37  38 0
 6-311+G(2d,p)
 ****
 1  2  13  14  15  16  17  18  19  20  21  22  24  25 0
 3-21G
 ****
 27  28  29  32  34  39  40  41  42  43  44  45  46  47  48  49 0
 3-21G
 ****


