%nproc=1
%NoSave
%Mem=1900MB
#P OB98/GEN NMR

erre ene a

0 1
  C       77.404       7.142    -106.616
  O       77.546       7.857    -107.855
  P       78.717       8.948    -107.999
  C       77.977      10.781    -109.712
  O       78.667       9.563    -109.480
  C       77.250      10.727    -111.059
  O       78.084      10.095    -112.059
  C       75.963       9.917    -111.046
  O       74.896      10.628    -110.442
  C       75.754       9.661    -112.534
  O       75.122      10.786    -113.167
  C       77.203       9.496    -113.034
  N       77.557       8.104    -113.289
  C       76.946       7.500    -114.382
  O       76.104       8.062    -115.080
  N       77.311       6.204    -114.629
  C       78.157       5.449    -113.866
  O       78.430       4.285    -114.129
  C       78.707       6.116    -112.678
  C       78.383       7.390    -112.445
  O       80.027       8.023    -108.070
  O       78.826       9.934    -106.883
  H       74.901      10.507    -114.077
  H       80.793       8.518    -107.723
  H       76.902       5.757    -115.434
  H       79.364       5.545    -112.035
  H       78.783       7.896    -111.572
  H       77.349      10.068    -113.960
  H       75.119       8.789    -112.723
  H       76.128       8.960    -110.538
  H       77.054      11.758    -111.383
  H       78.694      11.607    -109.725
  H       77.264      10.949    -108.898
  P       74.363      10.067    -109.034
  C       71.826      10.677    -109.189
  O       73.100      10.983    -108.667
  O       75.530      10.555    -108.052
  O       74.129       8.594    -109.041
  H       75.915      11.403    -108.333
  H       71.686       9.600    -109.306
  H       71.705      11.167    -110.159
  H       71.064      11.058    -108.502
  H       76.583       6.460    -106.690
  H       77.221       7.836    -105.823
  H       78.303       6.597    -106.413

 3  4  5  6  7  8  9  10  11  12  13  23  28  29  30  31  32 0
 6-311+G(2d,p)
 ****
 33  34 0
 6-311+G(2d,p)
 ****
 1  2  14  15  16  17  18  19  20  21  22  24  25  26 0
 3-21G
 ****
 27  35  36  37  38  39  40  41  42  43  44  45 0
 3-21G
 ****


