%nproc=1
%NoSave
%Mem=1900MB
#P OB98/GEN NMR

erre ene a

0 1
  C      645.423    -313.174     142.064
  O      644.521    -312.775     143.076
  H      645.865    -314.128     142.344
  H      646.217    -312.431     141.969
  H      644.904    -313.294     141.105
  P      643.511    -311.575     142.720
  C      645.178    -309.976     143.921
  O      643.823    -310.394     143.764
  C      645.345    -309.174     145.206
  O      645.030    -307.779     144.973
  C      644.444    -309.624     146.355
  O      645.007    -310.731     147.052
  C      644.428    -308.374     147.217
  O      645.671    -308.287     147.952
  C      644.368    -307.263     146.163
  N      640.325    -304.532     147.583
  C      641.511    -304.778     148.255
  N      641.641    -304.220     149.483
  N      642.484    -305.506     147.767
  C      642.209    -306.016     146.540
  C      641.071    -305.847     145.789
  C      640.014    -305.027     146.324
  O      638.949    -304.769     145.774
  N      641.160    -306.518     144.592
  C      642.339    -307.110     144.640
  N      643.023    -306.838     145.804
  O      642.095    -312.147     143.197
  O      643.479    -311.184     141.282
  H      646.391    -308.331     147.294
  H      641.589    -312.451     142.420
  H      639.604    -303.973     148.008
  H      642.746    -307.739     143.858
  H      644.905    -306.360     146.473
  H      643.624    -308.377     147.958
  H      640.921    -303.675     149.926
  H      643.422    -309.845     146.008
  H      642.502    -304.384     149.987
  H      646.404    -309.222     145.503
  H      645.454    -309.351     143.062
  H      645.823    -310.860     143.949
  P      644.227    -312.133     147.011
  C      645.000    -312.842     149.385
  O      645.007    -313.128     147.994
  O      644.575    -312.682     145.554
  O      642.754    -312.051     147.227
  H      643.776    -312.694     144.989
  H      645.559    -313.591     149.906
  H      643.992    -312.836     149.743
  H      645.444    -311.883     149.554

 6  7  8  9  10  11  12  13  14  15  26  29  33  34 0
 6-311+G(2d,p)
 ****
 36  38  39  40  41 0
 6-311+G(2d,p)
 ****
 1  2  3  4  5  16  17  18  19  20  21  22  23  24  25 0
 3-21G
 ****
 27  28  30  31  32  35  37  42  43  44  45  46  47 0
 3-21G
 ****
 48  49 0
 3-21G
 ****


