%nproc=1
%NoSave
%Mem=1900MB
#P OB98/GEN NMR

erre ene a

0 1
  C      447.437    -132.094      -1.725
  O      447.741    -133.013      -0.673
  P      447.283    -134.543      -0.814
  C      444.911    -134.266       0.159
  O      445.685    -134.596      -0.982
  C      443.614    -135.089       0.201
  O      443.930    -136.506       0.235
  C      442.741    -134.770       1.424
  O      441.384    -134.483       1.084
  C      442.957    -135.967       2.336
  O      441.892    -136.163       3.253
  C      443.231    -137.102       1.343
  N      443.991    -138.194       1.958
  C      443.272    -139.324       2.326
  O      442.049    -139.406       2.230
  N      444.000    -140.346       2.874
  C      445.333    -140.316       3.156
  O      445.932    -141.242       3.689
  C      446.032    -139.070       2.803
  C      445.337    -138.083       2.227
  O      447.841    -135.484       0.199
  O      447.793    -134.931      -2.288
  H      441.053    -135.902       2.816
  H      448.124    -135.850      -2.256
  H      443.495    -141.181       3.129
  H      447.085    -139.000       3.031
  H      445.820    -137.151       1.970
  H      442.295    -137.532       0.969
  H      443.865    -135.790       2.926
  H      443.083    -133.864       1.934
  H      443.066    -134.880      -0.724
  H      444.658    -133.206       0.134
  H      445.515    -134.416       1.062
  P      440.871    -133.077       0.521
  C      440.497    -131.357       2.424
  O      441.401    -131.920       1.492
  O      439.417    -132.999       0.188
  O      441.749    -132.877      -0.806
  H      441.189    -132.496      -1.507
  H      440.880    -130.379       2.728
  H      440.435    -132.000       3.306
  H      439.505    -131.227       1.987
  H      447.811    -131.124      -1.471
  H      446.377    -132.043      -1.859
  H      447.896    -132.427      -2.633

 3  4  5  6  7  8  9  10  11  12  13  23  28  29  30  31  32 0
 6-311+G(2d,p)
 ****
 33  34 0
 6-311+G(2d,p)
 ****
 1  2  14  15  16  17  18  19  20  21  22  24  25  26  27 0
 3-21G
 ****
 35  36  37  38  39  40  41  42  43  44  45 0
 3-21G
 ****


