%nproc=1
%NoSave
%Mem=1900MB
#P OB98/GEN NMR

erre ene a

0 1
  C       29.918     140.034       2.548
  O       29.778     138.639       2.762
  P       31.119     137.774       2.939
  C       31.085     137.459       5.516
  O       31.694     138.095       4.402
  C       32.018     137.470       6.728
  O       33.107     136.535       6.491
  C       32.646     138.838       7.037
  O       32.767     138.924       8.461
  C       34.008     138.718       6.375
  O       34.951     139.678       6.818
  C       34.339     137.264       6.695
  N       39.013     135.198       6.682
  C       38.193     135.562       7.693
  N       36.957     136.098       7.619
  C       36.579     136.241       6.338
  C       37.312     135.934       5.205
  C       38.588     135.386       5.412
  N       39.427     135.024       4.377
  N       36.605     136.245       4.063
  C       35.463     136.735       4.498
  N       35.393     136.733       5.864
  O       32.153     138.511       1.968
  O       30.979     136.320       2.611
  H       34.599     140.580       6.684
  H       32.726     137.867       1.509
  H       38.581     135.400       8.694
  H       34.666     137.113       3.873
  H       34.636     137.131       7.742
  H       33.891     138.859       5.294
  H       32.049     139.681       6.677
  H       31.459     137.105       7.598
  H       30.863     136.418       5.264
  H       40.386     134.831       4.625
  H       39.187     135.357       3.452
  H       30.137     137.958       5.745
  P       32.644     140.362       9.164
  C       30.467     139.997      10.479
  O       31.061     140.574       9.333
  O       32.969     141.331       7.932
  O       33.496     140.574      10.367
  H       32.432     141.111       7.151
  H       29.418     140.300      10.518
  H       30.971     140.347      11.385
  H       30.519     138.907      10.417
  H       28.950     140.478       2.448
  H       30.482     140.203       1.654
  H       30.428     140.473       3.380

 3  4  5  6  7  8  9  10  11  12  22  25  29  30  31  32 0
 6-311+G(2d,p)
 ****
 33  36  37 0
 6-311+G(2d,p)
 ****
 1  2  13  14  15  16  17  18  19  20  21  23  24  26 0
 3-21G
 ****
 27  28  34  35  38  39  40  41  42  43  44  45  46  47  48 0
 3-21G
 ****


