%nproc=1
%NoSave
%Mem=1900MB
#P OB98/GEN NMR

erre ene a

0 1
  C     -127.662     -54.384    -287.569
  O     -128.160     -55.166    -286.475
  P     -129.731     -55.495    -286.459
  C     -131.304     -57.142    -287.716
  O     -129.981     -56.837    -287.298
  C     -131.421     -58.630    -288.069
  O     -130.390     -59.023    -289.001
  C     -131.241     -59.542    -286.869
  O     -132.428     -59.578    -286.094
  C     -130.896     -60.875    -287.525
  O     -132.075     -61.649    -287.807
  C     -130.196     -60.442    -288.835
  N     -128.786     -60.787    -288.856
  C     -128.198     -60.870    -290.127
  O     -128.873     -60.677    -291.143
  N     -126.866     -61.193    -290.215
  C     -126.191     -61.442    -289.134
  N     -124.876     -61.765    -289.283
  C     -126.781     -61.390    -287.779
  C     -128.070     -61.066    -287.714
  O     -130.352     -54.352    -287.393
  O     -130.334     -55.475    -285.094
  H     -132.630     -61.080    -288.383
  H     -131.243     -54.109    -287.085
  H     -126.177     -61.610    -286.908
  H     -128.585     -61.005    -286.764
  H     -130.671     -60.925    -289.704
  H     -130.262     -61.486    -286.881
  H     -130.395     -59.202    -286.257
  H     -132.401     -58.802    -288.534
  H     -124.505     -61.789    -290.228
  H     -131.574     -56.533    -288.587
  H     -124.261     -61.980    -288.512
  H     -132.006     -56.873    -286.918
  P     -132.482     -58.672    -284.769
  C     -133.136     -56.195    -284.637
  O     -133.487     -57.474    -285.129
  O     -131.057     -57.938    -284.810
  O     -132.713     -59.370    -283.469
  H     -130.928     -57.414    -283.995
  H     -133.777     -55.447    -285.114
  H     -132.092     -55.960    -284.863
  H     -133.302     -56.153    -283.554
  H     -126.608     -54.241    -287.455
  H     -128.152     -53.433    -287.579
  H     -127.855     -54.895    -288.489

 3  4  5  6  7  8  9  10  11  12  13  21  23  27  28  29  30  32 0
 6-311+G(2d,p)
 ****
 34  35 0
 6-311+G(2d,p)
 ****
 1  2  14  15  16  17  18  19  20  22  24  25  26 0
 3-21G
 ****
 31  33  36  37  38  39  40  41  42  43  44  45  46 0
 3-21G
 ****


