%nproc=1
%NoSave
%Mem=1900MB
#P OB98/GEN NMR

erre ene a

0 1
  C     1309.245     626.752     522.783
  O     1308.916     627.771     521.859
  H     1308.752     626.971     523.736
  H     1310.323     626.742     522.941
  H     1308.911     625.774     522.434
  P     1309.115     627.485     520.293
  C     1306.723     626.526     520.296
  O     1308.062     626.352     519.860
  C     1305.717     626.399     519.144
  O     1306.078     625.261     518.318
  C     1304.293     626.160     519.636
  O     1303.563     627.341     519.919
  C     1303.670     625.420     518.446
  O     1303.122     626.328     517.477
  C     1304.861     624.662     517.851
  N     1303.052     619.972     516.834
  C     1302.639     621.189     516.321
  N     1301.591     621.154     515.462
  N     1303.202     622.332     516.637
  C     1304.169     622.224     517.586
  C     1304.639     621.067     518.174
  C     1304.074     619.811     517.753
  O     1304.411     618.693     518.164
  N     1305.601     621.351     519.136
  C     1305.638     622.657     519.168
  N     1304.845     623.233     518.211
  O     1310.514     626.697     520.240
  O     1309.156     628.700     519.416
  H     1302.391     626.822     517.906
  H     1310.967     626.895     519.389
  H     1302.615     619.133     516.533
  H     1306.247     623.265     519.842
  H     1304.876     624.709     516.761
  H     1302.850     624.777     518.780
  H     1301.085     620.325     515.248
  H     1304.277     625.496     520.506
  H     1301.146     622.044     515.226
  H     1305.784     627.293     518.510
  H     1306.654     627.525     520.736
  H     1306.484     625.802     521.095
  P     1302.773     627.526     521.287
  C     1304.862     628.489     522.575
  O     1303.832     627.522     522.480
  O     1302.032     626.115     521.468
  O     1301.827     628.675     521.354
  H     1301.104     626.187     521.175
  H     1305.452     628.297     523.447
  H     1304.429     629.465     522.644
  H     1305.483     628.435     521.705

 6  7  8  9  10  11  12  13  14  15  26  29  33  34 0
 6-311+G(2d,p)
 ****
 36  38  39  40  41 0
 6-311+G(2d,p)
 ****
 1  2  3  4  5  16  17  18  19  20  21  22  23  24  25 0
 3-21G
 ****
 27  28  30  31  32  35  37  42  43  44  45  46  47 0
 3-21G
 ****
 48  49 0
 3-21G
 ****


