%nproc=1
%NoSave
%Mem=1900MB
#P OB98/GEN NMR

erre ene a

0 1
  C       48.643      76.805    -116.183
  O       48.502      78.209    -116.255
  P       48.114      78.932    -117.628
  C       50.577      79.339    -118.212
  O       49.347      78.773    -118.641
  C       51.579      79.435    -119.362
  O       51.905      78.100    -119.829
  C       51.077      80.245    -120.565
  O       52.192      80.981    -121.077
  C       50.650      79.170    -121.546
  O       50.624      79.640    -122.889
  C       51.696      78.086    -121.255
  N       51.282      76.772    -121.721
  C       51.961      76.247    -122.821
  O       52.773      76.940    -123.435
  N       51.689      74.957    -123.205
  C       50.694      74.324    -122.659
  N       50.502      73.026    -123.019
  C       49.797      74.946    -121.664
  C       50.168      76.140    -121.212
  O       47.608      80.332    -117.486
  O       46.995      77.984    -118.272
  H       46.206      78.521    -118.484
  H       50.015      80.406    -122.943
  H       48.910      74.426    -121.332
  H       49.590      76.666    -120.460
  H       52.656      78.341    -121.725
  H       49.647      78.812    -121.291
  H       50.272      80.940    -120.303
  H       52.503      79.878    -118.972
  H       51.162      72.621    -123.672
  H       50.993      78.699    -117.430
  H       49.979      72.374    -122.435
  H       50.398      80.328    -117.771
  P       51.923      82.435    -121.708
  C       51.810      81.561    -124.149
  O       51.149      82.231    -123.097
  O       53.394      82.850    -122.201
  O       51.388      83.477    -120.779
  H       53.456      83.823    -122.234
  H       51.167      81.574    -125.033
  H       52.001      80.518    -123.874
  H       52.752      82.058    -124.394
  H       48.904      76.523    -115.184
  H       49.413      76.489    -116.855
  H       47.719      76.339    -116.455

 3  4  5  6  7  8  9  10  11  12  13  24  27  28  29  30  32 0
 6-311+G(2d,p)
 ****
 34  35 0
 6-311+G(2d,p)
 ****
 1  2  14  15  16  17  18  19  20  21  22  23  25  26 0
 3-21G
 ****
 31  33  36  37  38  39  40  41  42  43  44  45  46 0
 3-21G
 ****


