%nproc=1
%NoSave
%Mem=1900MB
#P OB98/GEN NMR

erre ene a

0 1
  C      170.917    -369.850     118.434
  O      171.412    -371.133     118.118
  H      171.677    -369.104     118.166
  H      170.728    -369.775     119.507
  H      170.002    -369.638     117.876
  P      170.449    -372.402     118.286
  C      171.797    -373.476     120.204
  O      170.564    -372.894     119.810
  C      172.054    -373.245     121.699
  O      173.211    -374.027     122.097
  C      172.327    -371.785     122.062
  O      171.727    -371.495     123.327
  C      173.833    -371.722     122.175
  O      174.268    -370.678     123.046
  C      174.168    -373.126     122.690
  N      179.032    -372.660     123.998
  C      177.885    -372.201     124.634
  N      178.067    -371.496     125.774
  N      176.680    -372.409     124.183
  C      176.651    -373.150     123.048
  C      177.703    -373.667     122.328
  C      179.038    -373.409     122.827
  O      180.087    -373.776     122.304
  N      177.263    -374.344     121.217
  C      175.950    -374.235     121.263
  N      175.529    -373.514     122.346
  O      170.645    -373.482     117.262
  O      168.974    -371.792     118.213
  H      174.012    -370.933     123.956
  H      168.554    -371.982     117.349
  H      179.932    -372.463     124.388
  H      175.267    -374.656     120.539
  H      174.074    -373.199     123.785
  H      174.275    -371.549     121.186
  H      178.973    -371.318     126.186
  H      171.935    -371.094     121.311
  H      177.247    -371.164     126.271
  H      171.201    -373.642     122.263
  H      172.599    -373.012     119.620
  H      171.775    -374.553     119.988
  P      170.438    -370.543     123.388
  C      171.667    -368.284     123.571
  O      170.827    -369.103     122.773
  O      169.741    -370.490     124.707
  O      169.489    -371.162     122.258
  H      168.558    -371.062     122.542
  H      171.854    -367.362     123.062
  H      172.594    -368.788     123.747
  H      171.186    -368.084     124.506

 6  7  8  9  10  11  12  13  14  15  26  29  33  34 0
 6-311+G(2d,p)
 ****
 36  38  39  40  41 0
 6-311+G(2d,p)
 ****
 1  2  3  4  5  16  17  18  19  20  21  22  23  24  25 0
 3-21G
 ****
 27  28  30  31  32  35  37  42  43  44  45  46  47 0
 3-21G
 ****
 48  49 0
 3-21G
 ****


