%nproc=1
%NoSave
%Mem=1900MB
#P OB98/GEN NMR

erre ene a

0 1
  C     -890.920    -895.880    -892.160
  O     -890.640    -897.120    -892.740
  P     -891.510    -898.350    -892.150
  C     -893.100    -898.890    -894.120
  O     -892.970    -898.330    -892.830
  C     -894.420    -898.500    -894.820
  O     -895.540    -898.820    -894.010
  C     -894.450    -896.990    -895.150
  O     -895.210    -896.780    -896.360
  C     -895.340    -896.430    -893.960
  O     -895.850    -895.190    -894.320
  C     -896.310    -897.610    -893.800
  N     -896.940    -897.580    -892.540
  C     -898.380    -897.600    -892.490
  O     -898.990    -897.530    -893.530
  N     -899.000    -897.670    -891.260
  C     -898.320    -897.690    -890.170
  N     -899.020    -897.730    -888.990
  C     -896.830    -897.580    -890.140
  C     -896.220    -897.580    -891.310
  O     -891.770    -897.970    -890.630
  O     -890.760    -899.670    -892.280
  H     -896.700    -895.370    -894.950
  H     -891.560    -898.720    -890.070
  H     -896.300    -897.580    -889.210
  H     -895.130    -897.530    -891.450
  H     -897.110    -897.570    -894.600
  H     -894.680    -896.330    -893.060
  H     -893.510    -896.470    -895.210
  H     -894.500    -899.020    -895.770
  H     -900.000    -897.800    -889.060
  H     -893.070    -900.000    -894.080
  H     -898.560    -897.710    -888.080
  H     -892.240    -898.550    -894.730
  P     -894.330    -896.500    -897.720
  C     -895.410    -898.300    -899.230
  O     -894.340    -897.930    -898.430
  O     -892.910    -896.370    -897.090
  O     -894.740    -895.350    -898.540
  H     -892.270    -896.180    -897.830
  H     -895.200    -899.240    -899.800
  H     -895.630    -897.520    -900.000
  H     -896.340    -898.460    -898.650
  H     -890.303    -895.129    -892.608
  H     -890.722    -895.925    -891.109
  H     -891.950    -895.636    -892.319

 3  4  5  6  7  8  9  10  11  12  13  21  23  27  28  29  30  32 0
 6-311+G(2d,p)
 ****
 34  35 0
 6-311+G(2d,p)
 ****
 1  2  14  15  16  17  18  19  20  22  24  25  26 0
 3-21G
 ****
 31  33  36  37  38  39  40  41  42  43  44  45  46 0
 3-21G
 ****


