%nproc=1
%NoSave
%Mem=1900MB
#P OB98/GEN NMR

erre ene a

0 1
  C     -191.565     230.654     297.633
  O     -190.977     229.487     298.218
  P     -191.389     229.178     299.736
  C     -191.186     226.597     299.600
  O     -190.684     227.800     300.161
  C     -190.507     226.279     298.265
  O     -189.067     226.104     298.452
  C     -191.031     224.997     297.593
  O     -190.996     225.222     296.182
  C     -189.983     223.971     298.005
  O     -190.020     222.787     297.228
  C     -188.728     224.826     297.878
  N     -185.035     221.324     297.503
  C     -186.055     221.645     296.687
  N     -187.003     222.595     296.858
  C     -186.809     223.244     298.021
  C     -185.816     223.023     298.958
  C     -184.888     222.011     298.663
  N     -183.858     221.657     299.500
  N     -185.964     223.882     300.040
  C     -187.076     224.547     299.778
  N     -187.570     224.255     298.537
  O     -192.940     228.800     299.638
  O     -191.136     230.319     300.669
  H     -189.282     222.198     297.491
  H     -193.492     229.566     299.883
  H     -186.129     221.066     295.770
  H     -187.561     225.249     300.446
  H     -188.446     224.996     296.832
  H     -190.147     223.682     299.051
  H     -192.046     224.730     297.890
  H     -190.646     227.132     297.593
  H     -192.267     226.683     299.435
  H     -183.242     220.909     299.205
  H     -183.718     222.136     300.382
  H     -191.052     225.782     300.320
  P     -192.376     225.407     295.387
  C     -192.055     226.909     293.327
  O     -191.939     225.599     293.853
  O     -192.744     226.922     295.792
  O     -193.451     224.419     295.686
  H     -191.986     227.518     295.655
  H     -191.653     226.917     292.312
  H     -191.488     227.616     293.940
  H     -193.108     227.205     293.294
  H     -191.221     230.760     296.625
  H     -191.283     231.517     298.199
  H     -192.631     230.557     297.638

 3  4  5  6  7  8  9  10  11  12  22  25  29  30  31  32 0
 6-311+G(2d,p)
 ****
 33  36  37 0
 6-311+G(2d,p)
 ****
 1  2  13  14  15  16  17  18  19  20  21  23  24  26 0
 3-21G
 ****
 27  28  34  35  38  39  40  41  42  43  44  45  46  47  48 0
 3-21G
 ****


