%nproc=1
%NoSave
%Mem=1900MB
#P OB98/GEN NMR

erre ene a

0 1
  C      -60.241     105.978    -149.972
  O      -61.132     106.948    -149.411
  P      -61.592     108.155    -150.364
  C      -63.637     107.088    -151.548
  O      -63.179     108.040    -150.597
  C      -65.151     107.206    -151.776
  O      -65.889     106.671    -150.641
  C      -65.630     108.649    -151.977
  O      -66.736     108.619    -152.892
  C      -66.147     109.032    -150.602
  O      -67.033     110.148    -150.667
  C      -66.776     107.708    -150.170
  N      -70.059     108.440    -146.327
  C      -70.176     108.607    -147.659
  N      -69.244     108.410    -148.619
  C      -68.102     107.954    -148.077
  C      -67.829     107.745    -146.731
  C      -68.874     108.009    -145.828
  N      -68.745     107.862    -144.465
  N      -66.522     107.318    -146.565
  C      -66.020     107.280    -147.783
  N      -66.944     107.625    -148.730
  O      -60.972     107.752    -151.784
  O      -61.108     109.498    -149.916
  H      -67.610     110.126    -149.872
  H      -60.218     108.338    -151.994
  H      -71.149     108.951    -148.005
  H      -65.002     107.015    -148.032
  H      -67.762     107.546    -150.619
  H      -65.309     109.300    -149.949
  H      -64.864     109.340    -152.341
  H      -65.413     106.605    -152.654
  H      -63.403     106.074    -151.208
  H      -69.533     108.104    -143.885
  H      -67.851     107.588    -144.082
  H      -63.081     107.225    -152.484
  P      -66.402     108.942    -154.426
  C      -65.143     107.204    -155.894
  O      -66.322     107.528    -155.174
  O      -64.878     109.439    -154.386
  O      -67.305     109.956    -155.048
  H      -64.694     110.024    -155.146
  H      -64.903     106.150    -155.724
  H      -64.287     107.813    -155.575
  H      -65.320     107.362    -156.958
  H      -60.015     105.234    -149.237
  H      -59.337     106.460    -150.280
  H      -60.705     105.515    -150.818

 3  4  5  6  7  8  9  10  11  12  22  25  29  30  31  32 0
 6-311+G(2d,p)
 ****
 33  36  37 0
 6-311+G(2d,p)
 ****
 1  2  13  14  15  16  17  18  19  20  21  23  24  26 0
 3-21G
 ****
 27  28  34  35  38  39  40  41  42  43  44  45  46  47  48 0
 3-21G
 ****


