%nproc=1
%NoSave
%Mem=1900MB
#P OB98/GEN NMR

erre ene a

0 1
  C       77.108     -28.096      18.170
  O       75.929     -28.870      18.069
  H       76.897     -27.081      17.821
  H       77.895     -28.527      17.546
  H       77.444     -28.047      19.211
  P       75.986     -30.367      18.642
  C       77.400     -32.374      17.769
  O       76.548     -31.285      17.449
  C       77.756     -33.149      16.497
  O       76.536     -33.712      15.941
  C       78.391     -32.270      15.410
  O       79.388     -33.030      14.720
  C       77.228     -31.975      14.477
  O       77.627     -31.639      13.154
  C       76.447     -33.288      14.563
  N       75.048     -33.140      14.156
  C       74.800     -32.668      12.871
  O       75.666     -32.440      12.029
  N       73.478     -32.453      12.565
  C       72.416     -32.637      13.403
  O       71.259     -32.405      13.074
  C       72.741     -33.129      14.750
  C       74.023     -33.351      15.061
  O       74.446     -30.789      18.732
  O       76.706     -30.536      19.939
  H       74.078     -30.560      19.609
  H       76.821     -31.595      12.599
  H       73.279     -32.114      11.635
  H       71.926     -33.279      15.444
  H       74.299     -33.699      16.050
  H       76.929     -34.062      13.952
  H       76.631     -31.141      14.871
  H       78.834     -31.354      15.809
  H       78.411     -33.988      16.761
  H       76.881     -33.043      18.464
  H       78.309     -31.993      18.249
  P       80.912     -32.858      15.200
  C       82.990     -31.718      14.090
  O       81.577     -31.800      14.187
  O       81.541     -34.265      14.777
  O       81.031     -32.522      16.652
  H       81.184     -34.612      13.939
  H       83.255     -30.968      13.375
  H       83.382     -32.663      13.777
  H       83.399     -31.461      15.045

 6  7  8  9  10  11  12  13  14  15  16  27  31  32  33  34  35 0
 6-311+G(2d,p)
 ****
 36  37 0
 6-311+G(2d,p)
 ****
 1  2  3  4  5  17  18  19  20  21  22  23  24  25 0
 3-21G
 ****
 26  28  29  30  38  39  40  41  42  43  44  45 0
 3-21G
 ****


