%nproc=1
%NoSave
%Mem=1900MB
#P OB98/GEN NMR

erre ene a

0 1
  C     -207.039    -599.954     598.912
  O     -207.060    -601.384     598.794
  P     -206.683    -602.157     597.439
  C     -205.969    -604.536     596.734
  O     -206.580    -603.725     597.737
  C     -205.226    -605.731     597.337
  O     -204.011    -605.300     597.984
  C     -206.005    -606.490     598.405
  O     -207.005    -607.313     597.820
  C     -204.883    -607.247     599.106
  O     -204.542    -608.446     598.378
  C     -203.731    -606.229     599.046
  N     -203.527    -605.542     600.319
  C     -202.776    -606.209     601.284
  O     -202.356    -607.361     601.067
  N     -202.525    -605.589     602.483
  C     -203.052    -604.421     602.718
  N     -202.767    -603.841     603.919
  C     -203.928    -603.718     601.761
  C     -204.116    -604.326     600.595
  O     -205.491    -601.590     596.736
  O     -207.988    -602.034     596.522
  H     -203.930    -608.952     598.956
  H     -207.715    -602.024     595.581
  H     -204.369    -602.769     602.018
  H     -204.744    -603.876     599.832
  H     -202.786    -606.728     598.772
  H     -205.147    -607.553     600.121
  H     -206.464    -605.778     599.109
  H     -204.950    -606.407     596.515
  H     -202.153    -604.352     604.551
  H     -205.251    -603.906     596.181
  H     -203.125    -602.942     604.206
  H     -206.742    -604.878     596.038
  P     -208.553    -606.950     598.033
  C     -210.640    -607.158     596.557
  O     -209.384    -607.708     596.890
  O     -208.861    -605.497     598.179
  O     -208.960    -607.756     599.355
  H     -209.648    -607.257     599.834
  H     -210.917    -607.484     595.545
  H     -210.613    -606.063     596.585
  H     -211.402    -607.513     597.262
  H     -207.326    -599.674     599.904
  H     -207.724    -599.528     598.209
  H     -206.052    -599.594     598.712

 3  4  5  6  7  8  9  10  11  12  13  23  27  28  29  30  32 0
 6-311+G(2d,p)
 ****
 34  35 0
 6-311+G(2d,p)
 ****
 1  2  14  15  16  17  18  19  20  21  22  24  25  26 0
 3-21G
 ****
 31  33  36  37  38  39  40  41  42  43  44  45  46 0
 3-21G
 ****


