%nproc=1
%NoSave
%Mem=1900MB
#P OB98/GEN NMR

erre ene a

0 1
  C     -180.285      47.493     157.691
  O     -181.687      47.312     157.580
  P     -182.618      48.590     157.868
  C     -183.314      49.858     160.039
  O     -182.870      48.636     159.453
  C     -183.963      49.585     161.394
  O     -185.187      48.841     161.216
  C     -183.117      48.749     162.347
  O     -182.073      49.524     162.918
  C     -184.182      48.286     163.335
  O     -184.482      49.339     164.264
  C     -185.387      48.037     162.408
  N     -186.387      43.298     164.090
  C     -186.288      44.481     164.739
  N     -185.998      45.696     164.223
  C     -185.806      45.616     162.896
  C     -185.852      44.478     162.107
  C     -186.161      43.273     162.753
  N     -186.259      42.063     162.092
  N     -185.579      44.784     160.787
  C     -185.382      46.086     160.781
  N     -185.522      46.639     162.025
  O     -184.036      48.150     157.278
  O     -182.130      49.874     157.259
  H     -185.342      49.124     164.682
  H     -184.510      48.913     156.902
  H     -186.466      44.449     165.809
  H     -185.139      46.677     159.901
  H     -186.338      48.349     162.862
  H     -183.879      47.409     163.913
  H     -182.691      47.883     161.818
  H     -184.210      50.554     161.852
  H     -184.051      50.333     159.380
  H     -186.337      41.231     162.653
  H     -185.953      42.025     161.127
  H     -182.458      50.534     160.141
  P     -180.635      48.825     163.065
  C     -180.029      46.466     163.896
  O     -180.919      47.560     164.022
  O     -179.877      49.838     164.047
  O     -179.944      48.521     161.777
  H     -180.420      50.071     164.818
  H     -180.302      45.706     164.635
  H     -179.000      46.790     164.085
  H     -180.108      46.033     162.895
  H     -179.788      46.570     157.475
  H     -180.043      47.804     158.686
  H     -179.966      48.241     156.996

 3  4  5  6  7  8  9  10  11  12  22  25  29  30  31  32 0
 6-311+G(2d,p)
 ****
 33  36  37 0
 6-311+G(2d,p)
 ****
 1  2  13  14  15  16  17  18  19  20  21  23  24  26 0
 3-21G
 ****
 27  28  34  35  38  39  40  41  42  43  44  45  46  47  48 0
 3-21G
 ****


