%nproc=1
%NoSave
%Mem=1900MB
#P OB98/GEN NMR

erre ene a

0 1
  C     -233.355    -127.386    -275.785
  O     -234.111    -126.226    -275.502
  H     -233.878    -128.006    -276.517
  H     -232.390    -127.086    -276.203
  H     -233.182    -127.957    -274.869
  P     -235.587    -126.450    -274.914
  C     -236.654    -124.410    -276.109
  O     -236.298    -125.007    -274.870
  C     -235.872    -123.111    -276.306
  O     -234.456    -123.425    -276.289
  C     -236.181    -122.371    -277.618
  O     -236.638    -121.043    -277.341
  C     -234.839    -122.279    -278.326
  O     -234.625    -121.020    -278.967
  C     -233.830    -122.522    -277.211
  N     -230.078    -121.823    -280.585
  C     -230.944    -120.953    -280.021
  N     -231.851    -121.185    -279.050
  C     -231.791    -122.464    -278.639
  C     -230.946    -123.458    -279.104
  C     -230.067    -123.101    -280.141
  N     -229.223    -123.998    -280.755
  N     -231.186    -124.650    -278.445
  C     -232.189    -124.389    -277.631
  N     -232.600    -123.086    -277.726
  O     -235.320    -126.784    -273.371
  O     -236.379    -127.522    -275.583
  H     -234.927    -120.334    -278.342
  H     -235.834    -127.574    -273.113
  H     -230.912    -119.937    -280.408
  H     -232.682    -125.110    -276.989
  H     -233.585    -121.600    -276.668
  H     -234.784    -123.066    -279.089
  H     -236.919    -122.892    -278.238
  H     -236.069    -122.459    -275.445
  H     -237.726    -124.182    -276.113
  H     -228.716    -123.685    -281.566
  H     -229.290    -124.976    -280.503
  H     -236.444    -125.119    -276.919
  P     -237.959    -120.555    -278.123
  C     -237.446    -118.001    -278.137
  O     -238.270    -119.053    -277.647
  O     -239.121    -121.408    -277.428
  O     -237.903    -120.775    -279.597
  H     -239.865    -121.530    -278.050
  H     -237.779    -117.069    -277.731
  H     -237.508    -117.967    -279.205
  H     -236.432    -118.176    -277.844

 6  7  8  9  10  11  12  13  14  15  25  28  32  33  34  35 0
 6-311+G(2d,p)
 ****
 36  39  40 0
 6-311+G(2d,p)
 ****
 1  2  3  4  5  16  17  18  19  20  21  22  23  24 0
 3-21G
 ****
 26  27  29  30  31  37  38  41  42  43  44  45  46  47  48 0
 3-21G
 ****


