%nproc=1
%NoSave
%Mem=1900MB
#P OB98/GEN NMR

erre ene a

0 1
  C      -53.477    -177.332      78.922
  O      -54.023    -176.783      77.739
  H      -52.578    -177.897      78.661
  H      -54.193    -178.014      79.387
  H      -53.202    -176.542      79.625
  P      -55.300    -175.819      77.851
  C      -53.888    -173.720      78.306
  O      -54.807    -174.350      77.427
  C      -53.973    -172.200      78.172
  O      -53.103    -171.596      79.164
  C      -53.549    -171.680      76.795
  O      -54.392    -170.581      76.447
  C      -52.135    -171.184      77.026
  O      -51.762    -170.159      76.107
  C      -52.201    -170.708      78.476
  N      -48.640    -167.805      80.574
  C      -49.898    -167.476      80.109
  N      -50.257    -166.177      80.190
  N      -50.732    -168.347      79.605
  C      -50.249    -169.613      79.597
  C      -49.024    -170.064      80.026
  C      -48.102    -169.089      80.571
  O      -46.972    -169.316      80.985
  N      -48.895    -171.417      79.828
  C      -50.039    -171.779      79.278
  N      -50.890    -170.720      79.107
  O      -56.031    -175.873      79.154
  O      -56.228    -176.262      76.628
  H      -50.882    -169.828      76.387
  H      -56.948    -176.846      76.935
  H      -48.033    -167.094      80.944
  H      -50.298    -172.787      78.979
  H      -52.587    -169.685      78.563
  H      -51.428    -172.016      76.917
  H      -49.673    -165.455      80.582
  H      -53.596    -172.446      76.016
  H      -51.185    -165.917      79.877
  H      -54.996    -171.887      78.414
  H      -52.878    -174.057      78.047
  H      -54.107    -174.019      79.337
  P      -55.586    -170.823      75.406
  C      -57.214    -172.202      76.853
  O      -56.955    -170.945      76.234
  O      -55.354    -171.897      74.396
  O      -55.736    -169.389      74.700
  H      -56.056    -169.520      73.786
  H      -58.149    -172.158      77.371
  H      -56.431    -172.425      77.548
  H      -57.256    -172.966      76.105

 6  7  8  9  10  11  12  13  14  15  26  29  33  34 0
 6-311+G(2d,p)
 ****
 36  38  39  40  41 0
 6-311+G(2d,p)
 ****
 1  2  3  4  5  16  17  18  19  20  21  22  23  24  25 0
 3-21G
 ****
 27  28  30  31  32  35  37  42  43  44  45  46  47 0
 3-21G
 ****
 48  49 0
 3-21G
 ****


