%nproc=1
%NoSave
%Mem=1900MB
#P OB98/GEN NMR

erre ene a

0 1
  C      -57.345     -10.060      48.789
  O      -57.832     -11.377      49.037
  P      -56.858     -12.434      49.742
  C      -58.838     -14.051      50.426
  O      -57.574     -13.857      49.831
  C      -59.503     -15.294      49.812
  O      -59.783     -15.072      48.412
  C      -58.637     -16.547      49.901
  O      -58.810     -17.227      51.132
  C      -59.110     -17.341      48.700
  O      -60.367     -17.982      48.985
  C      -59.303     -16.218      47.653
  N      -58.129     -15.798      46.856
  C      -57.834     -16.451      45.662
  O      -58.491     -17.381      45.201
  N      -56.740     -15.988      44.978
  C      -56.027     -14.861      45.264
  O      -55.093     -14.461      44.582
  C      -56.471     -14.124      46.451
  C      -57.471     -14.620      47.185
  O      -56.797     -11.941      51.260
  O      -55.496     -12.522      49.127
  H      -60.193     -18.677      49.644
  H      -55.894     -11.653      51.489
  H      -56.470     -16.493      44.147
  H      -55.965     -13.198      46.690
  H      -57.807     -14.082      48.068
  H      -60.088     -16.489      46.937
  H      -58.413     -18.138      48.453
  H      -57.585     -16.292      49.742
  H      -60.458     -15.464      50.325
  H      -59.476     -13.176      50.280
  H      -58.719     -14.180      51.507
  P      -58.028     -16.726      52.436
  C      -60.085     -17.209      53.890
  O      -58.716     -17.488      53.670
  O      -57.884     -15.250      52.587
  O      -56.607     -17.461      52.325
  H      -55.938     -16.865      51.916
  H      -60.467     -17.901      54.647
  H      -60.656     -17.341      52.967
  H      -60.202     -16.185      54.256
  H      -58.110      -9.480      48.317
  H      -56.489     -10.111      48.149
  H      -57.070      -9.601      49.716

 3  4  5  6  7  8  9  10  11  12  13  23  28  29  30  31  32 0
 6-311+G(2d,p)
 ****
 33  34 0
 6-311+G(2d,p)
 ****
 1  2  14  15  16  17  18  19  20  21  22  24  25  26  27 0
 3-21G
 ****
 35  36  37  38  39  40  41  42  43  44  45 0
 3-21G
 ****


