%nproc=1
%NoSave
%Mem=1900MB
#P OB98/GEN NMR

erre ene a

0 1
  C      914.335     169.384    -339.095
  O      915.220     168.759    -340.006
  H      914.759     169.310    -338.085
  H      913.370     168.871    -339.105
  H      914.197     170.436    -339.341
  P      914.977     168.958    -341.577
  C      915.260     166.409    -341.885
  O      915.672     167.701    -342.306
  C      916.477     165.542    -341.532
  O      917.221     165.269    -342.764
  C      917.456     166.210    -340.536
  O      918.041     165.153    -339.752
  C      918.471     166.808    -341.491
  O      919.649     167.204    -340.831
  C      918.589     165.673    -342.513
  N      919.267     166.064    -343.746
  C      920.594     166.465    -343.640
  O      921.223     166.486    -342.589
  N      921.191     166.858    -344.820
  C      920.582     166.886    -346.043
  O      921.172     167.230    -347.072
  C      919.177     166.480    -346.085
  C      918.592     166.085    -344.946
  O      915.352     170.288    -342.132
  O      913.411     168.655    -341.760
  H      912.923     169.502    -341.784
  H      919.468     167.980    -340.258
  H      922.151     167.162    -344.764
  H      918.667     166.505    -347.040
  H      917.547     165.780    -344.934
  H      919.103     164.810    -342.072
  H      918.059     167.714    -341.963
  H      916.967     166.929    -339.876
  H      916.124     164.575    -341.152
  H      914.699     165.939    -342.703
  H      914.604     166.508    -341.008
  P      917.332     164.522    -338.463
  C      918.628     165.703    -336.573
  O      918.385     164.484    -337.244
  O      916.689     163.195    -338.725
  O      916.237     165.588    -338.000
  H      915.459     165.125    -337.660
  H      919.340     165.544    -335.791
  H      917.714     166.068    -336.154
  H      919.014     166.421    -337.266

 6  7  8  9  10  11  12  13  14  15  16  27  31  32  33  34  35 0
 6-311+G(2d,p)
 ****
 36  37 0
 6-311+G(2d,p)
 ****
 1  2  3  4  5  17  18  19  20  21  22  23  24  25 0
 3-21G
 ****
 26  28  29  30  38  39  40  41  42  43  44  45 0
 3-21G
 ****


