%nproc=1
%NoSave
%Mem=1900MB
#P OB98/GEN NMR

erre ene a

0 1
  C       33.641      66.968     -74.323
  O       33.590      68.339     -73.924
  P       34.047      69.414     -75.024
  C       36.464      69.245     -74.096
  O       35.407      70.096     -74.514
  C       37.622      70.064     -73.522
  O       38.231      70.919     -74.506
  C       37.205      70.977     -72.377
  O       37.096      70.233     -71.176
  C       38.346      71.986     -72.354
  O       39.470      71.490     -71.600
  C       38.712      72.115     -73.841
  N       39.266      77.101     -74.562
  C       39.923      76.254     -73.690
  N       40.880      76.810     -72.918
  N       39.664      74.977     -73.587
  C       38.685      74.557     -74.421
  C       37.983      75.293     -75.347
  C       38.275      76.707     -75.449
  O       37.738      77.493     -76.220
  N       37.109      74.506     -76.055
  C       37.196      73.327     -75.468
  N       38.184      73.288     -74.514
  O       32.954      70.574     -74.883
  O       34.089      68.865     -76.411
  H       39.716      70.610     -71.939
  H       32.378      70.583     -75.670
  H       39.499      78.078     -74.594
  H       36.591      72.467     -75.712
  H       39.799      72.146     -73.985
  H       38.049      72.925     -71.880
  H       41.132      77.786     -72.947
  H       36.262      71.482     -72.620
  H       41.378      76.205     -72.277
  H       38.383      69.355     -73.171
  H       36.818      68.647     -74.937
  H       36.076      68.542     -73.351
  P       35.649      69.679     -70.767
  C       35.140      71.904     -69.534
  O       35.171      70.492     -69.476
  O       35.967      68.213     -70.206
  O       34.667      69.623     -71.891
  H       35.314      67.580     -70.559
  H       34.356      72.267     -68.866
  H       34.939      72.264     -70.546
  H       36.103      72.298     -69.197
  H       33.316      66.349     -73.513
  H       34.645      66.711     -74.588
  H       33.000      66.818     -75.167

 3  4  5  6  7  8  9  10  11  12  23  26  30  31 0
 6-311+G(2d,p)
 ****
 33  35  36  37  38 0
 6-311+G(2d,p)
 ****
 1  2  13  14  15  16  17  18  19  20  21  22  24  25 0
 3-21G
 ****
 27  28  29  32  34  39  40  41  42  43  44  45  46  47  48  49 0
 3-21G
 ****


