%nproc=1
%NoSave
%Mem=1900MB
#P OB98/GEN NMR

erre ene a

0 1
  C      943.421     918.941    -893.640
  O      944.034     920.201    -893.370
  P      943.989     921.310    -894.510
  C      942.253     922.799    -893.210
  O      942.581     922.092    -894.380
  C      940.899     923.553    -893.370
  O      941.044     924.516    -894.420
  C      939.701     922.670    -893.770
  O      938.510     923.389    -893.470
  C      939.895     922.602    -895.290
  O      938.653     922.183    -895.920
  C      940.408     923.994    -895.630
  N      941.340     924.039    -896.760
  C      940.857     923.792    -898.060
  O      939.675     923.539    -898.310
  N      941.751     923.774    -899.050
  C      943.117     924.040    -898.950
  O      943.918     923.922    -899.850
  C      943.565     924.431    -897.600
  C      942.691     924.434    -896.560
  O      943.833     920.448    -895.880
  O      945.184     922.206    -894.550
  H      938.886     922.026    -896.870
  H      944.674     920.431    -896.360
  H      941.440     923.525    -900.000
  H      944.575     924.714    -897.460
  H      943.010     924.685    -895.580
  H      939.558     924.676    -895.880
  H      940.652     921.844    -895.510
  H      939.692     921.685    -893.300
  H      940.693     924.105    -892.450
  H      943.039     923.493    -892.950
  H      942.173     922.096    -892.370
  P      937.395     922.633    -892.540
  C      937.598     923.801    -890.250
  O      937.949     922.706    -891.060
  O      936.896     921.328    -893.060
  O      936.212     923.733    -892.520
  H      935.374     923.309    -892.270
  H      937.574     923.484    -889.170
  H      936.612     924.193    -890.540
  H      938.359     924.593    -890.370
  H      943.529     918.302    -892.789
  H      943.893     918.489    -894.488
  H      942.381     919.087    -893.846

 3  4  5  6  7  8  9  10  11  12  13  23  28  29  30  31  32 0
 6-311+G(2d,p)
 ****
 33  34 0
 6-311+G(2d,p)
 ****
 1  2  14  15  16  17  18  19  20  21  22  24  25  26  27 0
 3-21G
 ****
 35  36  37  38  39  40  41  42  43  44  45 0
 3-21G
 ****


