%nproc=1
%NoSave
%Mem=1900MB
#P OB98/GEN NMR

erre ene a

0 1
  C      162.890     856.300     209.528
  O      163.412     855.278     210.361
  P      164.740     855.617     211.206
  C      163.910     856.200     213.600
  O      164.318     856.693     212.324
  C      164.578     856.988     214.726
  O      165.991     856.622     214.776
  C      164.511     858.517     214.567
  O      164.404     859.064     215.893
  C      165.870     858.831     213.956
  O      166.238     860.201     214.046
  C      166.746     857.852     214.714
  N      171.482     859.695     214.108
  C      170.450     860.103     214.881
  N      169.217     859.564     214.990
  C      169.107     858.463     214.218
  C      170.073     857.927     213.382
  C      171.315     858.591     213.347
  N      172.364     858.170     212.554
  N      169.592     856.810     212.736
  C      168.354     856.671     213.161
  N      168.033     857.636     214.076
  O      165.614     856.483     210.186
  O      165.486     854.420     211.713
  H      166.108     860.529     214.962
  H      166.555     856.267     210.254
  H      170.628     860.995     215.471
  H      167.657     855.915     212.843
  H      166.936     858.187     215.746
  H      165.843     858.579     212.885
  H      163.661     858.854     213.972
  H      164.136     856.691     215.678
  H      164.200     855.146     213.701
  H      173.131     858.814     212.448
  H      172.162     857.486     211.847
  H      162.821     856.263     213.677
  P      163.917     860.583     216.053
  C      161.466     860.019     216.590
  O      162.360     860.551     215.634
  O      164.588     861.268     214.765
  O      164.257     861.240     217.347
  H      164.384     860.773     213.956
  H      160.445     860.139     216.213
  H      161.565     860.548     217.541
  H      161.663     858.952     216.729
  H      162.014     855.941     209.029
  H      163.625     856.578     208.802
  H      162.637     857.152     210.124

 3  4  5  6  7  8  9  10  11  12  22  25  29  30  31  32 0
 6-311+G(2d,p)
 ****
 33  36  37 0
 6-311+G(2d,p)
 ****
 1  2  13  14  15  16  17  18  19  20  21  23  24  26 0
 3-21G
 ****
 27  28  34  35  38  39  40  41  42  43  44  45  46  47  48 0
 3-21G
 ****


