%nproc=1
%NoSave
%Mem=1900MB
#P OB98/GEN NMR

erre ene a

0 1
  C     -155.593     657.962     105.775
  O     -156.109     657.043     106.733
  P     -155.830     655.467     106.484
  C     -157.077     653.609     105.179
  O     -156.874     655.001     105.376
  C     -158.358     653.367     104.392
  O     -158.213     653.751     103.011
  C     -158.807     651.901     104.349
  O     -159.494     651.517     105.535
  C     -159.765     651.922     103.157
  O     -161.044     652.432     103.572
  C     -159.052     652.895     102.209
  N     -159.233     650.053      98.005
  C     -160.260     650.726      98.677
  N     -161.498     650.567      98.177
  N     -160.078     651.494      99.727
  C     -158.769     651.537     100.114
  C     -157.667     650.947      99.528
  C     -157.900     650.093      98.374
  O     -157.051     649.437      97.791
  N     -156.510     651.238     100.215
  C     -156.898     652.044     101.191
  N     -158.266     652.229     101.195
  O     -156.378     654.782     107.828
  O     -154.398     655.124     106.218
  H     -161.615     652.434     102.776
  H     -156.017     653.881     107.902
  H     -159.439     649.485      97.219
  H     -156.247     652.495     101.911
  H     -159.773     653.558     101.696
  H     -159.929     650.927     102.740
  H     -161.725     649.946      97.413
  H     -157.960     651.245     104.135
  H     -162.290     650.992      98.676
  H     -159.157     653.986     104.836
  H     -157.146     653.117     106.142
  H     -156.219     653.188     104.633
  P     -159.595     649.938     105.811
  C     -160.395     647.909     104.398
  O     -160.249     649.306     104.491
  O     -160.759     649.842     106.918
  O     -158.322     649.305     106.292
  H     -160.663     649.055     107.454
  H     -161.082     647.669     103.582
  H     -160.806     647.506     105.323
  H     -159.433     647.430     104.198
  H     -155.850     658.960     106.063
  H     -156.013     657.749     104.814
  H     -154.528     657.868     105.728

 3  4  5  6  7  8  9  10  11  12  23  26  30  31 0
 6-311+G(2d,p)
 ****
 33  35  36  37  38 0
 6-311+G(2d,p)
 ****
 1  2  13  14  15  16  17  18  19  20  21  22  24  25 0
 3-21G
 ****
 27  28  29  32  34  39  40  41  42  43  44  45  46  47  48  49 0
 3-21G
 ****


