%nproc=1
%NoSave
%Mem=1900MB
#P OB98/GEN NMR

erre ene a

0 1
  C      -21.545     -41.445     115.493
  O      -20.632     -41.846     114.491
  H      -22.103     -42.324     115.828
  H      -22.254     -40.718     115.088
  H      -21.018     -41.017     116.350
  P      -19.614     -40.761     113.894
  C      -17.494     -41.688     115.016
  O      -18.181     -41.481     113.791
  C      -16.104     -41.057     114.967
  O      -15.559     -41.022     116.311
  C      -15.115     -41.820     114.078
  O      -14.284     -40.871     113.409
  C      -14.287     -42.611     115.072
  O      -12.984     -42.910     114.575
  C      -14.280     -41.683     116.285
  N      -10.757     -43.869     119.172
  C      -10.627     -43.133     118.011
  N       -9.376     -42.972     117.529
  N      -11.638     -42.601     117.374
  C      -12.831     -42.828     117.976
  C      -13.091     -43.540     119.122
  C      -11.965     -44.136     119.811
  O      -12.018     -44.809     120.834
  N      -14.435     -43.568     119.397
  C      -14.986     -42.877     118.416
  N      -14.056     -42.416     117.522
  O      -19.594     -39.444     114.599
  O      -20.059     -40.611     112.366
  H      -13.103     -43.407     113.737
  H      -20.601     -39.810     112.242
  H       -9.947     -44.264     119.616
  H      -16.046     -42.688     118.301
  H      -13.495     -40.919     116.222
  H      -14.792     -43.557     115.303
  H       -8.549     -43.338     117.974
  H      -15.610     -42.465     113.345
  H       -9.255     -42.416     116.691
  H      -16.206     -40.016     114.638
  H      -17.405     -42.767     115.183
  H      -18.075     -41.251     115.837
  P      -14.501     -40.625     111.839
  C      -16.556     -39.070     111.836
  O      -15.148     -39.170     111.645
  O      -15.183     -41.729     111.101
  O      -13.002     -40.412     111.304
  H      -12.952     -40.722     110.378
  H      -16.866     -38.058     111.680
  H      -16.803     -39.369     112.833
  H      -17.057     -39.708     111.138

 6  7  8  9  10  11  12  13  14  15  26  29  33  34 0
 6-311+G(2d,p)
 ****
 36  38  39  40  41 0
 6-311+G(2d,p)
 ****
 1  2  3  4  5  16  17  18  19  20  21  22  23  24  25 0
 3-21G
 ****
 27  28  30  31  32  35  37  42  43  44  45  46  47 0
 3-21G
 ****
 48  49 0
 3-21G
 ****


