%nproc=1
%NoSave
%Mem=1900MB
#P OB98/GEN NMR

erre ene a

0 1
  C      822.950    -609.949    -158.187
  O      823.985    -610.895    -158.018
  H      821.985    -610.455    -158.089
  H      823.014    -609.514    -159.191
  H      823.011    -609.156    -157.435
  P      825.460    -610.328    -157.731
  C      826.994    -612.209    -158.640
  O      826.405    -611.604    -157.501
  C      826.632    -613.698    -158.701
  O      825.315    -613.825    -159.323
  C      827.619    -614.555    -159.519
  O      827.745    -615.840    -158.896
  C      826.892    -614.733    -160.840
  O      827.333    -615.886    -161.542
  C      825.446    -614.819    -160.356
  N      823.724    -616.835    -164.621
  C      824.529    -617.373    -163.635
  N      824.998    -618.628    -163.836
  N      824.851    -616.741    -162.537
  C      824.292    -615.499    -162.454
  C      823.488    -614.850    -163.361
  C      823.156    -615.561    -164.575
  O      822.478    -615.136    -165.501
  N      823.193    -613.582    -162.928
  C      823.827    -613.460    -161.780
  N      824.511    -614.601    -161.449
  O      825.310    -609.698    -156.266
  O      825.961    -609.328    -158.719
  H      826.941    -615.872    -162.437
  H      825.121    -608.743    -156.332
  H      823.526    -617.360    -165.453
  H      823.835    -612.570    -161.161
  H      825.204    -615.802    -159.920
  H      827.046    -613.853    -161.475
  H      824.772    -619.190    -164.641
  H      828.610    -614.099    -159.637
  H      825.553    -619.048    -163.099
  H      826.547    -614.080    -157.683
  H      828.087    -612.118    -158.572
  H      826.658    -611.692    -159.540
  P      829.163    -616.241    -158.272
  C      829.421    -618.566    -159.417
  O      829.262    -617.842    -158.211
  O      829.018    -615.820    -156.740
  O      830.328    -615.556    -158.922
  H      829.876    -615.505    -156.398
  H      829.469    -619.613    -159.201
  H      830.325    -618.259    -159.900
  H      828.589    -618.373    -160.061

 6  7  8  9  10  11  12  13  14  15  26  29  33  34 0
 6-311+G(2d,p)
 ****
 36  38  39  40  41 0
 6-311+G(2d,p)
 ****
 1  2  3  4  5  16  17  18  19  20  21  22  23  24  25 0
 3-21G
 ****
 27  28  30  31  32  35  37  42  43  44  45  46  47 0
 3-21G
 ****
 48  49 0
 3-21G
 ****


