%nproc=1
%NoSave
%Mem=1900MB
#P OB98/GEN NMR

erre ene a

0 1
  C      136.886      29.192      24.743
  O      136.016      28.856      25.817
  P      136.655      28.199      27.133
  C      135.801      25.827      26.522
  O      136.926      26.649      26.799
  C      136.221      24.370      26.317
  O      137.066      24.281      25.139
  C      137.009      23.766      27.486
  O      136.672      22.375      27.552
  C      138.453      23.906      27.035
  O      139.321      23.007      27.719
  C      138.297      23.639      25.539
  N      142.437      22.428      22.795
  C      141.512      21.662      23.409
  N      140.436      22.059      24.121
  C      140.366      23.398      24.167
  C      141.254      24.309      23.618
  C      142.335      23.776      22.896
  N      143.273      24.554      22.259
  N      140.862      25.602      23.902
  C      139.758      25.473      24.608
  N      139.407      24.165      24.772
  O      135.412      28.152      28.139
  O      137.805      28.940      27.722
  H      140.241      23.275      27.539
  H      135.553      28.781      28.873
  H      141.650      20.588      23.311
  H      139.181      26.292      25.021
  H      138.207      22.569      25.317
  H      138.802      24.925      27.225
  H      136.820      24.248      28.450
  H      135.320      23.777      26.114
  H      135.324      26.184      25.604
  H      143.937      24.101      21.650
  H      143.103      25.550      22.169
  H      135.081      25.901      27.341
  P      136.475      21.744      29.012
  C      138.861      20.726      29.044
  O      137.935      21.603      29.652
  O      136.045      20.231      28.706
  O      135.456      22.446      29.848
  H      135.496      19.885      29.434
  H      139.867      21.137      29.163
  H      138.657      20.597      27.974
  H      138.813      19.752      29.538
  H      136.317      29.617      23.943
  H      137.383      28.310      24.397
  H      137.612      29.902      25.081

 3  4  5  6  7  8  9  10  11  12  22  25  29  30  31  32 0
 6-311+G(2d,p)
 ****
 33  36  37 0
 6-311+G(2d,p)
 ****
 1  2  13  14  15  16  17  18  19  20  21  23  24  26 0
 3-21G
 ****
 27  28  34  35  38  39  40  41  42  43  44  45  46  47  48 0
 3-21G
 ****


