%nproc=1
%NoSave
%Mem=1900MB
#P OB98/GEN NMR

erre ene a

0 1
  C      -65.270    -315.694     -36.923
  O      -66.273    -315.426     -37.880
  H      -65.747    -315.965     -35.978
  H      -64.670    -314.795     -36.766
  H      -64.630    -316.519     -37.246
  P      -65.830    -315.397     -39.421
  C      -65.591    -312.820     -39.620
  O      -66.309    -313.981     -40.010
  C      -65.914    -311.654     -40.554
  O      -65.389    -311.962     -41.881
  C      -67.418    -311.365     -40.702
  O      -67.607    -309.950     -40.816
  C      -67.749    -311.997     -42.042
  O      -68.910    -311.428     -42.636
  C      -66.461    -311.724     -42.810
  N      -66.125    -311.581     -47.815
  C      -66.017    -310.572     -46.880
  N      -65.857    -309.315     -47.345
  N      -66.070    -310.776     -45.589
  C      -66.216    -312.081     -45.257
  C      -66.337    -313.170     -46.085
  C      -66.295    -312.930     -47.513
  O      -66.405    -313.779     -48.391
  N      -66.531    -314.319     -45.360
  C      -66.547    -313.919     -44.099
  N      -66.361    -312.570     -43.987
  O      -66.835    -316.445     -40.095
  O      -64.403    -315.747     -39.682
  H      -69.106    -311.921     -43.459
  H      -66.412    -317.322     -40.146
  H      -66.095    -311.368     -48.797
  H      -66.709    -314.558     -43.243
  H      -66.391    -310.686     -43.158
  H      -67.916    -313.074     -41.917
  H      -65.775    -309.083     -48.323
  H      -68.028    -311.755     -39.882
  H      -65.736    -308.570     -46.670
  H      -65.383    -310.762     -40.199
  H      -64.518    -313.028     -39.668
  H      -65.852    -312.565     -38.587
  P      -68.024    -309.137     -39.499
  C      -70.167    -308.249     -40.680
  O      -69.004    -307.940     -39.925
  O      -66.672    -308.378     -39.099
  O      -68.516    -310.000     -38.386
  H      -66.606    -308.310     -38.128
  H      -70.710    -307.350     -40.882
  H      -70.785    -308.922     -40.123
  H      -69.881    -308.708     -41.603

 6  7  8  9  10  11  12  13  14  15  26  29  33  34 0
 6-311+G(2d,p)
 ****
 36  38  39  40  41 0
 6-311+G(2d,p)
 ****
 1  2  3  4  5  16  17  18  19  20  21  22  23  24  25 0
 3-21G
 ****
 27  28  30  31  32  35  37  42  43  44  45  46  47 0
 3-21G
 ****
 48  49 0
 3-21G
 ****


