%nproc=1
%NoSave
%Mem=1900MB
#P OB98/GEN NMR

erre ene a

0 1
  C     -315.347    -231.094    -396.370
  O     -314.319    -230.807    -395.415
  P     -313.577    -229.379    -395.373
  C     -311.213    -230.308    -395.767
  O     -312.051    -229.550    -394.900
  C     -309.928    -230.810    -395.087
  O     -309.090    -229.692    -394.676
  C     -310.147    -231.677    -393.841
  O     -309.052    -232.594    -393.800
  C     -310.030    -230.654    -392.719
  O     -309.772    -231.239    -391.447
  C     -308.898    -229.785    -393.253
  N     -307.578    -227.081    -389.106
  C     -307.289    -228.343    -389.482
  N     -307.648    -228.985    -390.614
  C     -308.339    -228.166    -391.426
  C     -308.700    -226.851    -391.184
  C     -308.296    -226.305    -389.955
  N     -308.628    -225.032    -389.540
  N     -309.434    -226.338    -392.239
  C     -309.525    -227.335    -393.098
  N     -308.876    -228.461    -392.654
  O     -314.330    -228.317    -394.635
  O     -313.436    -228.966    -396.916
  H     -309.814    -230.535    -390.773
  H     -313.697    -228.033    -397.026
  H     -306.708    -228.928    -388.767
  H     -310.061    -227.314    -394.037
  H     -307.922    -230.252    -393.077
  H     -310.976    -230.094    -392.638
  H     -311.103    -232.204    -393.844
  H     -309.356    -231.369    -395.841
  H     -310.953    -229.685    -396.632
  H     -308.375    -224.763    -388.602
  H     -309.265    -224.491    -390.098
  H     -311.787    -231.170    -396.142
  P     -309.133    -234.034    -394.505
  C     -308.007    -235.215    -392.524
  O     -307.919    -234.900    -393.909
  O     -309.210    -234.001    -395.994
  O     -310.429    -234.723    -393.866
  H     -310.722    -235.455    -394.438
  H     -307.742    -234.334    -391.934
  H     -307.303    -236.021    -392.306
  H     -309.020    -235.538    -392.263
  H     -315.702    -232.093    -396.223
  H     -314.951    -230.998    -397.360
  H     -316.156    -230.405    -396.241

 3  4  5  6  7  8  9  10  11  12  22  25  29  30  31  32 0
 6-311+G(2d,p)
 ****
 33  36  37 0
 6-311+G(2d,p)
 ****
 1  2  13  14  15  16  17  18  19  20  21  23  24  26 0
 3-21G
 ****
 27  28  34  35  38  39  40  41  42  43  44  45  46  47  48 0
 3-21G
 ****


