%nproc=1
%NoSave
%Mem=1900MB
#P OB98/GEN NMR

erre ene a

0 1
  C     -293.564    -267.606    -237.355
  O     -293.096    -266.300    -237.626
  H     -294.006    -267.615    -236.353
  H     -292.733    -268.313    -237.372
  H     -294.329    -267.904    -238.075
  P     -292.528    -265.971    -239.088
  C     -290.170    -266.807    -238.450
  O     -290.946    -265.723    -238.938
  C     -288.700    -266.647    -238.853
  O     -288.636    -266.365    -240.275
  C     -287.980    -265.514    -238.118
  O     -286.634    -265.910    -237.850
  C     -287.991    -264.381    -239.123
  O     -286.915    -263.464    -238.921
  C     -287.906    -265.132    -240.449
  N     -286.843    -261.768    -244.067
  C     -286.010    -262.414    -243.181
  N     -284.693    -262.108    -243.254
  N     -286.420    -263.286    -242.296
  C     -287.759    -263.512    -242.351
  C     -288.693    -262.936    -243.186
  C     -288.221    -261.959    -244.144
  O     -288.917    -261.345    -244.944
  N     -289.951    -263.413    -242.924
  C     -289.783    -264.272    -241.935
  N     -288.472    -264.356    -241.545
  O     -293.260    -264.891    -239.821
  O     -292.603    -267.365    -239.868
  H     -286.088    -263.996    -238.884
  H     -293.344    -267.371    -240.504
  H     -286.475    -261.100    -244.721
  H     -290.566    -264.852    -241.468
  H     -286.873    -265.378    -240.728
  H     -288.934    -263.822    -239.043
  H     -284.304    -261.466    -243.925
  H     -288.477    -265.244    -237.186
  H     -284.054    -262.593    -242.633
  H     -288.194    -267.605    -238.693
  H     -290.570    -267.737    -238.873
  H     -290.259    -266.852    -237.356
  P     -286.241    -266.387    -236.368
  C     -284.314    -264.699    -236.219
  O     -284.694    -266.062    -236.104
  O     -286.663    -267.779    -236.008
  O     -286.988    -265.309    -235.437
  H     -287.292    -265.753    -234.617
  H     -283.267    -264.603    -236.023
  H     -284.864    -264.114    -235.512
  H     -284.525    -264.352    -237.209

 6  7  8  9  10  11  12  13  14  15  26  29  33  34 0
 6-311+G(2d,p)
 ****
 36  38  39  40  41 0
 6-311+G(2d,p)
 ****
 1  2  3  4  5  16  17  18  19  20  21  22  23  24  25 0
 3-21G
 ****
 27  28  30  31  32  35  37  42  43  44  45  46  47 0
 3-21G
 ****
 48  49 0
 3-21G
 ****


