%nproc=1
%NoSave
%Mem=1900MB
#P OB98/GEN NMR

erre ene a

0 1
  C     -226.136     130.701      67.629
  O     -225.428     131.855      68.114
  P     -226.190     133.268      68.174
  C     -225.485     134.135      65.815
  O     -226.540     133.780      66.694
  C     -225.647     135.573      65.301
  O     -226.861     135.688      64.503
  C     -225.733     136.635      66.406
  O     -225.128     137.830      65.892
  C     -227.232     136.834      66.552
  O     -227.577     138.060      67.180
  C     -227.664     136.737      65.086
  N     -229.089     136.467      64.896
  C     -229.996     137.440      65.301
  O     -229.687     138.487      65.864
  N     -231.318     137.157      65.063
  C     -231.813     136.011      64.511
  O     -233.010     135.807      64.354
  C     -230.810     135.007      64.130
  C     -229.518     135.278      64.336
  O     -225.008     134.265      68.605
  O     -227.312     133.350      69.156
  H     -228.535     138.037      67.358
  H     -225.321     134.858      69.314
  H     -231.989     137.858      65.337
  H     -231.159     134.086      63.684
  H     -228.760     134.555      64.049
  H     -227.398     137.662      64.565
  H     -227.647     136.021      67.158
  H     -225.243     136.331      67.336
  H     -224.808     135.790      64.629
  H     -225.484     133.451      64.961
  H     -224.531     134.028      66.341
  P     -223.665     138.237      66.423
  C     -224.391     140.458      67.600
  O     -223.871     139.151      67.721
  O     -223.235     139.291      65.294
  O     -222.715     137.092      66.555
  H     -223.941     139.920      65.079
  H     -225.207     140.496      66.876
  H     -223.597     141.141      67.292
  H     -224.772     140.774      68.573
  H     -225.489     129.849      67.654
  H     -226.456     130.876      66.623
  H     -226.989     130.520      68.249

 3  4  5  6  7  8  9  10  11  12  13  23  28  29  30  31  32 0
 6-311+G(2d,p)
 ****
 33  34 0
 6-311+G(2d,p)
 ****
 1  2  14  15  16  17  18  19  20  21  22  24  25  26 0
 3-21G
 ****
 27  35  36  37  38  39  40  41  42  43  44  45 0
 3-21G
 ****


