%nproc=1
%NoSave
%Mem=1900MB
#P OB98/GEN NMR

erre ene a

0 1
  C     -639.618    -892.350    -899.320
  O     -639.013    -892.180    -898.060
  H     -639.317    -893.320    -899.720
  H     -639.292    -891.560    -900.000
  H     -640.711    -892.330    -899.230
  P     -639.354    -890.820    -897.280
  C     -640.395    -891.640    -895.040
  O     -640.613    -891.140    -896.350
  C     -641.173    -892.950    -894.830
  O     -640.639    -893.960    -895.720
  C     -641.048    -893.510    -893.410
  O     -642.256    -894.240    -893.120
  C     -639.892    -894.470    -893.550
  O     -639.811    -895.350    -892.440
  C     -640.229    -895.070    -894.910
  N     -637.792    -899.540    -895.350
  C     -638.932    -899.210    -894.700
  N     -639.519    -898.000    -894.640
  C     -638.838    -897.100    -895.370
  C     -637.677    -897.300    -896.090
  C     -637.148    -898.610    -896.070
  N     -635.993    -898.970    -896.720
  N     -637.261    -896.130    -896.700
  C     -638.159    -895.230    -896.350
  N     -639.129    -895.770    -895.540
  O     -639.957    -889.880    -898.430
  O     -638.197    -890.180    -896.580
  H     -639.137    -896.040    -892.600
  H     -639.256    -889.310    -898.790
  H     -639.416    -900.000    -894.160
  H     -638.168    -894.190    -896.640
  H     -641.071    -895.770    -894.840
  H     -638.930    -893.920    -893.580
  H     -640.920    -892.740    -892.630
  H     -642.217    -892.790    -895.110
  H     -640.733    -890.880    -894.320
  H     -639.324    -891.830    -894.890
  H     -635.678    -899.920    -896.640
  H     -635.490    -898.260    -897.240
  P     -643.437    -893.540    -892.290
  C     -645.782    -893.910    -893.380
  O     -644.600    -893.110    -893.300
  O     -642.772    -892.130    -891.920
  O     -643.862    -894.260    -891.050
  H     -643.163    -891.790    -891.090
  H     -646.452    -893.485    -894.098
  H     -646.258    -893.940    -892.422
  H     -645.521    -894.903    -893.680

 6  7  8  9  10  11  12  13  14  15  25  28  32  33  34  35 0
 6-311+G(2d,p)
 ****
 36  37  40 0
 6-311+G(2d,p)
 ****
 1  2  3  4  5  16  17  18  19  20  21  22  23  24 0
 3-21G
 ****
 26  27  29  30  31  38  39 41  42  43  44  45  46  47  48 0
 3-21G
 ****


