%nproc=1
%NoSave
%Mem=1900MB
#P OB98/GEN NMR

erre ene a

0 1
  C     -125.709    -140.028     -46.489
  O     -126.298    -140.191     -47.764
  P     -127.535    -141.186     -47.996
  C     -125.762    -142.981     -48.491
  O     -126.950    -142.667     -47.782
  C     -125.420    -144.469     -48.373
  O     -124.985    -144.762     -47.016
  C     -126.580    -145.421     -48.703
  O     -125.993    -146.578     -49.307
  C     -127.128    -145.758     -47.329
  O     -127.913    -146.942     -47.326
  C     -125.831    -145.821     -46.509
  N     -126.081    -145.690     -45.078
  C     -125.715    -146.774     -44.275
  O     -125.280    -147.808     -44.785
  N     -125.901    -146.684     -42.917
  C     -126.499    -145.645     -42.421
  N     -126.652    -145.610     -41.069
  C     -127.015    -144.537     -43.246
  C     -126.761    -144.615     -44.552
  O     -128.280    -140.983     -49.272
  O     -128.437    -140.978     -46.690
  H     -128.218    -147.109     -46.407
  H     -128.951    -140.134     -46.758
  H     -127.556    -143.719     -42.794
  H     -127.098    -143.851     -45.237
  H     -125.307    -146.770     -46.686
  H     -127.762    -144.937     -46.972
  H     -127.334    -144.980     -49.359
  H     -124.570    -144.673     -49.036
  H     -126.270    -146.384     -40.537
  H     -124.944    -142.398     -48.059
  H     -127.027    -144.813     -40.573
  H     -125.863    -142.689     -49.541
  P     -126.648    -147.268     -50.598
  C     -127.563    -149.167     -49.141
  O     -127.879    -148.154     -50.079
  O     -125.687    -147.988     -51.487
  O     -127.367    -146.061     -51.371
  H     -127.573    -146.338     -52.285
  H     -128.485    -149.506     -48.658
  H     -126.877    -148.791     -48.374
  H     -127.100    -150.014     -49.658
  H     -124.906    -139.324     -46.555
  H     -125.332    -140.969     -46.148
  H     -126.444    -139.667     -45.800

 3  4  5  6  7  8  9  10  11  12  13  23  27  28  29  30  32 0
 6-311+G(2d,p)
 ****
 34  35 0
 6-311+G(2d,p)
 ****
 1  2  14  15  16  17  18  19  20  21  22  24  25  26 0
 3-21G
 ****
 31  33  36  37  38  39  40  41  42  43  44  45  46 0
 3-21G
 ****


