%nproc=1
%NoSave
%Mem=1900MB
#P OB98/GEN NMR

erre ene a

0 1
  C      -33.843    -456.210     429.371
  O      -34.477    -454.943     429.347
  H      -33.568    -456.511     428.356
  H      -32.937    -456.140     429.978
  H      -34.508    -456.957     429.814
  P      -35.815    -454.822     428.471
  C      -38.317    -454.340     428.961
  O      -37.032    -454.616     429.504
  C      -39.182    -453.627     430.002
  O      -39.469    -454.562     431.075
  C      -38.537    -452.375     430.623
  O      -39.371    -451.233     430.408
  C      -38.495    -452.671     432.112
  O      -38.823    -451.537     432.923
  C      -39.512    -453.794     432.282
  N      -40.074    -454.228     437.334
  C      -40.782    -453.544     436.411
  N      -40.651    -453.554     435.070
  C      -39.672    -454.399     434.695
  C      -38.879    -455.181     435.515
  C      -39.097    -455.060     436.899
  N      -38.331    -455.714     437.844
  N      -37.975    -455.915     434.768
  C      -38.194    -455.550     433.525
  N      -39.196    -454.623     433.431
  O      -36.032    -456.311     427.924
  O      -35.757    -453.827     427.359
  H      -38.026    -450.978     432.955
  H      -36.218    -456.286     426.967
  H      -41.565    -452.891     436.807
  H      -37.629    -455.889     432.658
  H      -40.534    -453.413     432.406
  H      -37.488    -453.001     432.385
  H      -37.531    -452.179     430.229
  H      -40.138    -453.368     429.536
  H      -38.806    -455.278     428.680
  H      -38.480    -455.475     438.813
  H      -37.529    -456.250     437.534
  H      -38.202    -453.722     428.064
  P      -39.198    -450.465     429.003
  C      -39.584    -451.173     426.524
  O      -39.960    -451.332     427.888
  O      -37.653    -450.698     428.659
  O      -39.550    -449.019     429.058
  H      -37.324    -449.972     428.095
  H      -40.181    -451.816     425.912
  H      -38.551    -451.427     426.407
  H      -39.737    -450.156     426.228

 6  7  8  9  10  11  12  13  14  15  25  28  32  33  34  35 0
 6-311+G(2d,p)
 ****
 36  39  40 0
 6-311+G(2d,p)
 ****
 1  2  3  4  5  16  17  18  19  20  21  22  23  24 0
 3-21G
 ****
 26  27  29  30  31  37  38  41  42  43  44  45  46  47  48 0
 3-21G
 ****


