%nproc=1
%NoSave
%Mem=1900MB
#P OB98/GEN NMR

erre ene a

0 1
  C     -404.687    -186.065    -288.530
  O     -405.663    -185.167    -288.042
  H     -405.136    -187.059    -288.603
  H     -403.840    -186.116    -287.840
  H     -404.341    -185.763    -289.521
  P     -405.314    -183.603    -287.995
  C     -403.884    -182.051    -286.517
  O     -404.293    -183.388    -286.779
  C     -404.102    -181.723    -285.043
  O     -403.461    -182.719    -284.214
  C     -403.500    -180.390    -284.613
  O     -404.280    -179.298    -285.059
  C     -403.448    -180.572    -283.106
  O     -404.721    -180.297    -282.506
  C     -403.099    -182.072    -282.972
  N     -401.683    -182.280    -282.665
  C     -401.313    -182.107    -281.336
  O     -402.103    -181.807    -280.443
  N     -399.975    -182.229    -281.071
  C     -398.987    -182.365    -282.005
  O     -397.796    -182.222    -281.750
  C     -399.443    -182.606    -283.381
  C     -400.749    -182.541    -283.649
  O     -406.486    -182.680    -288.010
  O     -404.385    -183.387    -289.284
  H     -404.914    -182.980    -289.995
  H     -404.663    -180.640    -281.590
  H     -399.693    -182.063    -280.114
  H     -398.692    -182.790    -284.140
  H     -401.107    -182.681    -284.664
  H     -403.701    -182.539    -282.185
  H     -402.712    -179.912    -282.646
  H     -402.478    -180.306    -284.995
  H     -405.179    -181.749    -284.836
  H     -404.485    -181.373    -287.132
  H     -402.829    -181.941    -286.789
  P     -403.886    -177.803    -284.649
  C     -403.687    -176.394    -282.510
  O     -404.057    -177.654    -283.061
  O     -404.541    -176.729    -285.452
  O     -402.295    -177.757    -284.836
  H     -402.064    -176.973    -285.370
  H     -403.841    -176.408    -281.451
  H     -404.287    -175.623    -282.947
  H     -402.655    -176.203    -282.717

 6  7  8  9  10  11  12  13  14  15  16  27  31  32  33  34  35 0
 6-311+G(2d,p)
 ****
 36  37 0
 6-311+G(2d,p)
 ****
 1  2  3  4  5  17  18  19  20  21  22  23  24  25 0
 3-21G
 ****
 26  28  29  30  38  39  40  41  42  43  44  45 0
 3-21G
 ****


