%nproc=1
%NoSave
%Mem=1900MB
#P OB98/GEN NMR

erre ene a

0 1
  C     -181.636     331.581     545.781
  O     -181.102     330.471     545.051
  P     -179.526     330.185     545.039
  C     -178.914     331.991     543.334
  O     -178.744     331.542     544.679
  C     -178.228     333.338     543.049
  O     -178.553     333.809     541.718
  C     -178.580     334.464     544.030
  O     -177.402     335.272     544.144
  C     -179.679     335.204     543.288
  O     -179.878     336.521     543.782
  C     -179.163     335.109     541.838
  N     -180.226     335.302     540.856
  C     -180.209     336.502     540.137
  O     -179.361     337.356     540.373
  N     -181.182     336.712     539.188
  C     -182.147     335.850     539.049
  N     -183.087     336.134     538.113
  C     -182.256     334.619     539.853
  C     -181.266     334.410     540.713
  O     -179.108     328.992     544.234
  O     -179.163     329.959     546.593
  H     -180.611     336.928     543.275
  H     -178.410     329.345     546.663
  H     -183.087     333.949     539.722
  H     -181.242     333.524     541.356
  H     -178.388     335.863     541.662
  H     -180.628     334.661     543.380
  H     -178.919     334.106     545.010
  H     -177.142     333.159     543.068
  H     -182.996     337.001     537.599
  H     -179.989     332.087     543.135
  H     -183.934     335.601     538.006
  H     -178.532     331.228     542.649
  P     -176.219     334.900     545.147
  C     -177.011     336.303     547.137
  O     -176.817     334.999     546.633
  O     -174.954     335.664     544.938
  O     -175.978     333.322     544.949
  H     -175.103     333.081     545.304
  H     -177.604     336.249     548.047
  H     -177.537     336.940     546.411
  H     -176.035     336.750     547.381
  H     -182.700     331.604     545.667
  H     -181.217     332.491     545.404
  H     -181.390     331.478     546.817

 3  4  5  6  7  8  9  10  11  12  13  23  27  28  29  30  32 0
 6-311+G(2d,p)
 ****
 34  35 0
 6-311+G(2d,p)
 ****
 1  2  14  15  16  17  18  19  20  21  22  24  25  26 0
 3-21G
 ****
 31  33  36  37  38  39  40  41  42  43  44  45  46 0
 3-21G
 ****


