%nproc=1
%NoSave
%Mem=1900MB
#P OB98/GEN NMR

erre ene a

0 1
  C       29.210     148.635    -117.369
  O       28.305     149.432    -118.108
  H       28.857     148.520    -116.341
  H       29.271     147.647    -117.834
  H       30.205     149.089    -117.374
  P       28.067     150.923    -117.566
  C       26.157     150.357    -115.914
  O       27.503     150.784    -116.067
  C       25.681     150.626    -114.489
  O       24.403     149.960    -114.305
  C       26.643     150.122    -113.400
  O       26.905     151.156    -112.443
  C       25.875     149.009    -112.712
  O       26.147     148.925    -111.318
  C       24.425     149.380    -112.995
  N       22.716     145.677    -109.935
  C       23.269     146.877    -109.660
  N       23.614     147.859    -110.517
  C       23.301     147.519    -111.780
  C       22.713     146.342    -112.211
  C       22.433     145.381    -111.225
  N       21.920     144.135    -111.511
  N       22.552     146.348    -113.585
  C       23.076     147.492    -113.979
  N       23.555     148.225    -112.925
  O       26.795     151.419    -118.405
  O       29.229     151.840    -117.740
  H       25.640     148.170    -110.968
  H       27.052     152.197    -118.935
  H       23.469     147.075    -108.609
  H       23.176     147.815    -115.008
  H       24.053     150.133    -112.288
  H       26.141     148.052    -113.177
  H       27.591     149.761    -113.811
  H       25.502     151.702    -114.374
  H       26.087     149.283    -116.117
  H       21.860     143.469    -110.760
  H       21.812     143.871    -112.480
  H       25.529     150.891    -116.635
  P       27.769     152.408    -112.969
  C       29.914     151.997    -111.562
  O       29.325     152.019    -112.856
  O       27.557     153.503    -111.821
  O       27.335     152.921    -114.300
  H       27.197     154.325    -112.208
  H       30.945     151.723    -111.644
  H       29.403     151.283    -110.950
  H       29.837     152.968    -111.118

 6  7  8  9  10  11  12  13  14  15  25  28  32  33  34  35 0
 6-311+G(2d,p)
 ****
 36  39  40 0
 6-311+G(2d,p)
 ****
 1  2  3  4  5  16  17  18  19  20  21  22  23  24 0
 3-21G
 ****
 26  27  29  30  31  37  38  41  42  43  44  45  46  47  48 0
 3-21G
 ****


