%nproc=1
%NoSave
%Mem=1900MB
#P OB98/GEN NMR

erre ene a

0 1
  C     -424.501    -559.534     900.691
  O     -425.476    -560.246     899.950
  P     -426.934    -559.578     899.821
  C     -426.649    -558.299     897.556
  O     -427.212    -559.399     898.253
  C     -426.732    -558.546     896.049
  O     -425.701    -559.464     895.633
  C     -428.059    -559.146     895.588
  O     -429.034    -558.138     895.451
  C     -427.649    -559.792     894.265
  O     -427.601    -558.811     893.209
  C     -426.242    -560.316     894.590
  N     -427.024    -565.107     893.152
  C     -427.310    -563.920     892.503
  N     -427.844    -564.033     891.259
  N     -427.093    -562.733     893.002
  C     -426.568    -562.779     894.253
  C     -426.258    -563.881     895.016
  C     -426.458    -565.189     894.420
  O     -426.132    -566.255     894.918
  N     -425.767    -563.528     896.236
  C     -425.756    -562.212     896.210
  N     -426.215    -561.707     895.025
  O     -426.692    -558.081     900.347
  O     -428.020    -560.279     900.569
  H     -428.386    -558.245     893.264
  H     -426.969    -557.992     901.276
  H     -427.195    -565.989     892.706
  H     -425.403    -561.580     897.021
  H     -425.568    -560.251     893.727
  H     -428.358    -560.563     893.946
  H     -428.059    -564.912     890.812
  H     -428.392    -559.921     896.291
  H     -428.070    -563.177     890.768
  H     -426.552    -557.588     895.543
  H     -425.601    -558.189     897.843
  H     -427.190    -557.388     897.835
  P     -430.573    -558.587     895.508
  C     -431.045    -558.028     898.003
  O     -431.287    -557.715     896.641
  O     -430.505    -560.061     896.145
  O     -431.265    -558.607     894.189
  H     -431.191    -560.630     895.737
  H     -431.128    -557.117     898.595
  H     -430.045    -558.457     898.146
  H     -431.790    -558.747     898.353
  H     -423.584    -560.086     900.697
  H     -424.844    -559.400     901.696
  H     -424.338    -558.578     900.240

 3  4  5  6  7  8  9  10  11  12  23  26  30  31 0
 6-311+G(2d,p)
 ****
 33  35  36  37  38 0
 6-311+G(2d,p)
 ****
 1  2  13  14  15  16  17  18  19  20  21  22  24  25 0
 3-21G
 ****
 27  28  29  32  34  39  40  41  42  43  44  45  46  47  48  49 0
 3-21G
 ****


