%nproc=1
%NoSave
%Mem=1900MB
#P OB98/GEN NMR

erre ene a

0 1
  C      454.526     542.817     -52.275
  O      454.005     543.457     -51.128
  P      452.531     543.033     -50.645
  C      452.919     543.592     -48.128
  O      452.207     543.886     -49.325
  C      452.928     544.814     -47.202
  O      453.684     545.883     -47.813
  C      451.551     545.398     -46.913
  O      450.843     544.598     -45.980
  C      451.935     546.786     -46.409
  O      452.379     546.711     -45.041
  C      453.128     547.136     -47.328
  N      452.592     551.935     -49.067
  C      452.968     551.438     -47.856
  N      453.063     550.153     -47.470
  C      452.735     549.323     -48.469
  C      452.308     549.673     -49.736
  C      452.240     551.049     -50.031
  N      451.851     551.535     -51.267
  N      452.026     548.555     -50.487
  C      452.290     547.538     -49.689
  N      452.729     547.956     -48.462
  O      452.751     541.551     -50.085
  O      451.486     543.084     -51.708
  H      452.859     547.550     -44.850
  H      451.962     540.995     -50.257
  H      453.236     552.200     -47.107
  H      452.181     546.489     -49.953
  H      453.917     547.672     -46.797
  H      451.119     547.505     -46.454
  H      450.968     545.483     -47.836
  H      453.425     544.522     -46.269
  H      453.944     543.326     -48.370
  H      451.685     552.534     -51.335
  H      451.451     550.890     -51.925
  H      452.455     542.728     -47.636
  P      449.285     544.345     -46.258
  C      449.383     542.124     -44.970
  O      448.813     543.425     -45.021
  O      449.334     543.299     -47.471
  O      448.474     545.574     -46.492
  H      449.955     542.571     -47.301
  H      449.033     541.628     -44.056
  H      450.478     542.186     -44.938
  H      449.074     541.538     -45.837
  H      455.506     543.194     -52.479
  H      453.888     543.010     -53.112
  H      454.578     541.762     -52.102

 3  4  5  6  7  8  9  10  11  12  22  25  29  30  31  32 0
 6-311+G(2d,p)
 ****
 33  36  37 0
 6-311+G(2d,p)
 ****
 1  2  13  14  15  16  17  18  19  20  21  23  24  26 0
 3-21G
 ****
 27  28  34  35  38  39  40  41  42  43  44  45  46  47  48 0
 3-21G
 ****


