%nproc=1
%NoSave
%Mem=1900MB
#P OB98/GEN NMR

erre ene a

0 1
  C       50.028     233.146    -238.696
  O       51.362     233.631    -238.669
  P       52.583     232.725    -239.189
  C       52.273     233.761    -241.536
  O       52.339     232.569    -240.765
  C       53.454     233.821    -242.501
  O       53.337     232.764    -243.473
  C       53.549     235.113    -243.302
  O       54.060     236.172    -242.506
  C       54.440     234.671    -244.457
  O       55.816     234.655    -244.050
  C       53.950     233.227    -244.701
  N       53.024     233.125    -245.821
  C       53.538     232.597    -247.010
  O       54.710     232.232    -247.085
  N       52.698     232.457    -248.086
  C       51.460     232.835    -247.996
  N       50.656     232.611    -249.069
  C       50.892     233.448    -246.781
  C       51.719     233.557    -245.744
  O       52.765     231.440    -238.457
  O       53.851     233.689    -239.128
  H       56.005     235.532    -243.662
  H       54.316     233.678    -238.255
  H       49.857     233.759    -246.757
  H       51.374     233.978    -244.809
  H       54.802     232.564    -244.884
  H       54.360     235.312    -245.340
  H       52.563     235.398    -243.687
  H       54.376     233.659    -241.926
  H       51.039     232.031    -249.809
  H       52.321     234.619    -240.857
  H       49.648     232.605    -248.983
  H       51.321     233.791    -242.075
  P       53.086     237.409    -242.204
  C       53.686     237.265    -239.686
  O       52.662     237.263    -240.662
  O       51.761     237.040    -243.020
  O       53.640     238.738    -242.593
  H       51.727     237.543    -243.855
  H       53.228     237.400    -238.703
  H       54.389     238.084    -239.862
  H       54.215     236.308    -239.699
  H       49.368     233.895    -238.310
  H       49.957     232.264    -238.094
  H       49.753     232.913    -239.704

 3  4  5  6  7  8  9  10  11  12  13  23  27  28  29  30  32 0
 6-311+G(2d,p)
 ****
 34  35 0
 6-311+G(2d,p)
 ****
 1  2  14  15  16  17  18  19  20  21  22  24  25  26 0
 3-21G
 ****
 31  33  36  37  38  39  40  41  42  43  44  45  46 0
 3-21G
 ****


