%nproc=1
%NoSave
%Mem=1900MB
#P OB98/GEN NMR

erre ene a

0 1
  C     -282.174     357.447     144.723
  O     -280.819     357.711     144.335
  P     -280.581     359.056     143.479
  C     -280.710     357.612     141.309
  O     -281.131     358.804     141.984
  C     -280.964     357.693     139.806
  O     -280.123     358.712     139.216
  C     -280.690     356.386     139.040
  O     -281.665     356.245     137.992
  C     -279.346     356.659     138.372
  O     -279.140     355.827     137.230
  C     -279.489     358.148     138.074
  N     -276.079     359.405     134.535
  C     -277.338     358.835     134.392
  N     -277.731     358.549     133.133
  N     -278.138     358.582     135.401
  C     -277.624     358.954     136.602
  C     -276.398     359.524     136.867
  C     -275.504     359.757     135.751
  O     -274.358     360.205     135.821
  N     -276.237     359.749     138.226
  C     -277.350     359.310     138.760
  N     -278.218     358.816     137.827
  O     -278.990     359.099     143.304
  O     -281.093     360.292     144.140
  H     -279.872     355.997     136.615
  H     -278.640     359.944     143.650
  H     -275.503     359.561     133.733
  H     -277.578     359.304     139.815
  H     -280.139     358.313     137.206
  H     -278.543     356.459     139.090
  H     -277.196     358.776     132.311
  H     -280.673     355.487     139.658
  H     -278.673     358.184     133.003
  H     -282.010     358.008     139.652
  H     -281.249     356.747     141.730
  H     -279.642     357.462     141.509
  P     -282.786     355.107     138.206
  C     -282.009     353.405     136.391
  O     -282.088     353.736     137.764
  O     -283.835     355.402     137.032
  O     -283.419     355.132     139.554
  H     -284.718     355.098     137.294
  H     -282.286     354.259     135.756
  H     -282.702     352.587     136.185
  H     -280.998     353.101     136.156
  H     -282.214     356.536     145.282
  H     -282.784     357.356     143.849
  H     -282.535     358.253     145.327

 3  4  5  6  7  8  9  10  11  12  23  26  30  31  33  0
 6-311+G(2d,p)
 ****
 35  36  37  38 0
 6-311+G(2d,p)
 ****
 1  2  13  14  15  16  17  18  19  20  21  22  24  25  27  28  29 0
 3-21G
 ****
 32  34  39  40  41  42  43  44  45  46  47  48  49 0
 3-21G
 ****


