%nproc=1
%NoSave
%Mem=1900MB
#P OB98/GEN NMR

erre ene a

0 1
  C      797.309      85.762     -55.768
  O      798.523      85.011     -55.876
  P      799.195      84.943     -57.343
  C      800.076      82.529     -57.771
  O      800.359      83.836     -57.285
  C      801.275      81.603     -57.578
  O      802.366      81.983     -58.441
  C      801.865      81.622     -56.174
  O      801.103      80.828     -55.274
  C      803.237      81.022     -56.413
  O      803.139      79.585     -56.432
  C      803.601      81.557     -57.811
  N      808.218      83.153     -56.476
  C      807.645      81.901     -56.347
  N      808.426      80.931     -55.815
  N      806.419      81.627     -56.712
  C      805.769      82.691     -57.253
  C      806.228      83.971     -57.434
  C      807.576      84.273     -56.994
  O      808.129      85.369     -57.056
  N      805.281      84.771     -58.027
  C      804.265      83.958     -58.234
  N      804.504      82.688     -57.778
  O      800.000      86.323     -57.433
  O      798.209      84.793     -58.458
  H      804.038      79.247     -56.639
  H      800.093      86.595     -58.367
  H      809.168      83.314     -56.171
  H      803.331      84.242     -58.716
  H      804.036      80.781     -58.446
  H      803.958      81.279     -55.628
  H      809.396      81.060     -55.584
  H      801.973      82.661     -55.807
  H      808.029      80.003     -55.752
  H      800.966      80.577     -57.839
  H      799.824      82.574     -58.837
  H      799.188      82.134     -57.255
  P      801.350      81.045     -53.703
  C      800.731      78.556     -53.347
  O      800.500      79.904     -52.974
  O      800.534      82.391     -53.393
  O      802.790      81.161     -53.303
  H      800.938      82.871     -52.641
  H      801.790      78.346     -53.458
  H      800.205      78.350     -54.291
  H      800.315      77.894     -52.565
  H      796.961      85.735     -54.756
  H      796.568      85.336     -56.411
  H      797.490      86.777     -56.055

 3  4  5  6  7  8  9  10  11  12  23  26  30  31  33  0
 6-311+G(2d,p)
 ****
 35  36  37  38 0
 6-311+G(2d,p)
 ****
 1  2  13  14  15  16  17  18  19  20  21  22  24  25  27  28  29 0
 3-21G
 ****
 32  34  39  40  41  42  43  44  45  46  47  48  49 0
 3-21G
 ****


