%nproc=1
%NoSave
%Mem=1900MB
#P OB98/GEN NMR

erre ene a

0 1
  C     -444.841     239.803     265.416
  O     -445.822     238.815     265.602
  P     -445.828     237.783     266.824
  C     -448.424     237.625     267.144
  O     -447.213     236.969     266.794
  C     -449.641     236.868     266.590
  O     -449.727     237.111     265.164
  C     -449.492     235.346     266.780
  O     -450.685     234.694     267.196
  C     -448.870     234.895     265.464
  O     -449.041     233.511     265.200
  C     -449.525     235.857     264.470
  N     -447.887     233.975     260.041
  C     -448.855     233.472     260.887
  N     -449.316     232.237     260.608
  N     -449.301     234.127     261.932
  C     -448.672     235.305     262.155
  C     -447.702     235.901     261.374
  C     -447.248     235.196     260.205
  O     -446.311     235.542     259.487
  N     -447.248     237.075     261.938
  C     -447.913     237.162     263.071
  N     -448.768     236.097     263.251
  O     -445.350     238.308     268.136
  O     -444.767     236.673     266.323
  H     -448.553     233.012     265.893
  H     -444.303     236.344     267.116
  H     -447.526     233.386     259.290
  H     -447.806     237.955     263.797
  H     -450.497     235.484     264.149
  H     -447.790     235.081     265.529
  H     -448.884     231.661     259.901
  H     -448.788     235.132     267.600
  H     -449.827     231.751     261.345
  H     -450.547     237.264     267.049
  H     -448.360     238.623     266.693
  H     -448.500     237.750     268.222
  P     -450.854     233.446     268.176
  C     -453.421     233.528     268.202
  O     -452.277     232.759     267.890
  O     -451.053     234.082     269.636
  O     -449.699     232.497     268.180
  H     -450.574     233.538     270.292
  H     -454.291     232.874     268.229
  H     -453.571     234.291     267.438
  H     -453.314     234.014     269.187
  H     -445.061     240.361     264.530
  H     -443.882     239.339     265.317
  H     -444.833     240.461     266.260

 3  4  5  6  7  8  9  10  11  12  23  26  30  31 0
 6-311+G(2d,p)
 ****
 33  35  36  37  38 0
 6-311+G(2d,p)
 ****
 1  2  13  14  15  16  17  18  19  20  21  22  24  25 0
 3-21G
 ****
 27  28  29  32  34  39  40  41  42  43  44  45  46  47  48  49 0
 3-21G
 ****


