%nproc=1
%NoSave
%Mem=1900MB
#P OB98/GEN NMR

erre ene a

0 1
  C       -1.829     764.908     161.294
  O       -1.679     766.316     161.337
  H       -2.265     764.569     162.236
  H       -0.849     764.436     161.168
  H       -2.489     764.623     160.468
  P       -1.210     767.041     159.990
  C        1.085     765.817     160.354
  O        0.080     766.255     159.451
  C        2.474     766.140     159.797
  O        2.547     765.813     158.397
  C        2.829     767.608     159.852
  O        3.093     768.066     161.168
  C        4.052     767.634     158.939
  O        5.219     767.157     159.623
  C        3.618     766.635     157.838
  N        3.207     767.302     156.611
  C        4.012     767.073     155.489
  O        5.003     766.346     155.577
  N        3.711     767.708     154.311
  C        2.662     768.478     154.251
  N        2.404     769.084     153.054
  C        1.762     768.723     155.399
  C        2.092     768.109     156.537
  O       -0.592     768.409     160.527
  O       -2.275     767.210     158.952
  H        5.008     766.259     159.936
  H        0.095     768.290     161.215
  H        0.897     769.364     155.299
  H        1.489     768.236     157.420
  H        4.446     765.946     157.591
  H        4.282     768.640     158.581
  H        2.045     768.213     159.378
  H        3.207     765.527     160.335
  H        3.056     768.914     152.298
  H        0.988     764.750     160.565
  H        1.647     769.724     152.897
  H        0.936     766.351     161.299
  P        2.988     769.620     161.531
  C        5.565     769.627     161.519
  O        4.380     770.284     161.067
  O        2.584     769.923     162.931
  O        1.968     770.191     160.414
  H        2.267     770.070     159.498
  H        6.424     770.150     161.154
  H        5.577     768.622     161.153
  H        5.581     769.617     162.589

 6  7  8  9  10  11  12  13  14  15  16  26  30  31  32  33  35 0
 6-311+G(2d,p)
 ****
 37  38 0
 6-311+G(2d,p)
 ****
 1  2  3  4  5  17  18  19  20  21  22  23  24  25 0
 3-21G
 ****
 27  28  29  34  36  39  40  41  42  43  44  45  46 0
 3-21G
 ****


