%nproc=1
%NoSave
%Mem=1900MB
#P OB98/GEN NMR

erre ene a

0 1
  C     1163.465    -896.750      -9.652
  O     1164.049    -897.190     -10.852
  H     1164.010    -895.860      -9.312
  H     1163.537    -897.510      -8.881
  H     1162.418    -896.480      -9.816
  P     1163.486    -898.530     -11.534
  C     1163.522    -897.840     -14.020
  O     1162.714    -898.100     -12.872
  C     1163.114    -896.490     -14.645
  O     1163.403    -895.440     -13.679
  C     1163.904    -896.200     -15.939
  O     1163.075    -895.860     -17.053
  C     1164.915    -895.130     -15.496
  O     1165.361    -894.270     -16.509
  C     1164.180    -894.430     -14.327
  N     1165.070    -893.780     -13.387
  C     1165.639    -892.560     -13.755
  O     1165.424    -891.990     -14.837
  N     1166.474    -891.990     -12.844
  C     1166.818    -892.500     -11.626
  O     1167.580    -891.930     -10.854
  C     1166.186    -893.780     -11.283
  C     1165.376    -894.370     -12.177
  O     1162.709    -899.440     -10.630
  O     1164.793    -899.260     -12.106
  H     1165.684    -893.450     -16.075
  H     1165.036    -900.000     -11.504
  H     1166.893    -891.100     -13.108
  H     1166.450    -894.230     -10.318
  H     1164.904    -895.320     -11.956
  H     1163.490    -893.670     -14.723
  H     1165.794    -895.650     -15.088
  H     1164.460    -897.080     -16.277
  H     1162.032    -896.490     -14.838
  H     1163.356    -898.650     -14.728
  H     1164.579    -897.800     -13.739
  P     1161.530    -896.290     -17.173
  C     1160.447    -894.220     -18.327
  O     1160.650    -894.950     -17.149
  O     1161.096    -897.420     -16.280
  O     1161.409    -896.800     -18.706
  H     1160.738    -897.520     -18.692
  H     1159.840    -893.365     -18.116
  H     1159.955    -894.838     -19.049
  H     1161.391    -893.900     -18.716

 6  7  8  9  10  11  12  13  14  15  16  26  31  32  33  34  35 0
 6-311+G(2d,p)
 ****
 36  37 0
 6-311+G(2d,p)
 ****
 1  2  3  4  5  17  18  19  20  21  22  23  24  25 0
 3-21G
 ****
 27  28  29  30  38  39  40  41  42  43  44  45 0
 3-21G
 ****


