%nproc=1
%NoSave
%Mem=1900MB
#P OB98/GEN NMR

erre ene a

0 1
  C       25.145     -23.294       1.683
  O       23.938     -23.789       1.136
  H       24.904     -22.656       2.536
  H       25.686     -22.699       0.942
  H       25.772     -24.119       2.030
  P       24.015     -24.724      -0.161
  C       23.760     -22.697      -1.740
  O       24.570     -23.798      -1.347
  C       24.015     -22.348      -3.204
  O       25.334     -21.794      -3.367
  C       23.928     -23.538      -4.158
  O       22.578     -23.822      -4.482
  C       24.713     -23.003      -5.342
  O       23.897     -22.076      -6.085
  C       25.860     -22.247      -4.645
  N       30.643     -23.137      -6.086
  C       29.679     -22.336      -6.666
  N       30.028     -21.708      -7.809
  N       28.476     -22.177      -6.177
  C       28.245     -22.920      -5.072
  C       29.113     -23.762      -4.415
  C       30.462     -23.878      -4.929
  O       31.355     -24.558      -4.430
  N       28.494     -24.419      -3.383
  C       27.267     -23.934      -3.382
  N       27.061     -23.026      -4.395
  O       22.764     -25.471      -0.509
  O       25.241     -25.709       0.135
  H       23.053     -22.526      -6.275
  H       24.936     -26.532       0.560
  H       31.550     -23.227      -6.513
  H       26.492     -24.200      -2.674
  H       26.170     -21.359      -5.207
  H       25.024     -23.786      -6.035
  H       30.880     -21.907      -8.311
  H       24.447     -24.414      -3.754
  H       29.315     -21.164      -8.279
  H       23.301     -21.565      -3.491
  H       24.019     -21.851      -1.096
  H       22.701     -22.932      -1.599
  P       22.035     -25.331      -4.574
  C       22.254     -25.722      -7.122
  O       22.787     -25.977      -5.834
  O       20.551     -25.462      -4.601
  O       22.736     -26.078      -3.350
  H       22.241     -25.974      -2.500
  H       22.854     -26.213      -7.860
  H       22.254     -24.668      -7.306
  H       21.252     -26.093      -7.173

 6  7  8  9  10  11  12  13  14  15  26  29  33  34 0
 6-311+G(2d,p)
 ****
 36  38  39  40  41 0
 6-311+G(2d,p)
 ****
 1  2  3  4  5  16  17  18  19  20  21  22  23  24  25 0
 3-21G
 ****
 27  28  30  31  32  35  37  42  43  44  45  46  47 0
 3-21G
 ****
 48  49 0
 3-21G
 ****


