%nproc=1
%NoSave
%Mem=1900MB
#P OB98/GEN NMR

erre ene a

0 1
  C       38.904    -270.134     -64.697
  O       39.803    -271.218     -64.551
  P       40.940    -271.088     -63.425
  C       42.862    -269.386     -63.002
  O       41.924    -269.928     -63.930
  C       44.250    -269.309     -63.631
  O       44.816    -270.628     -63.739
  C       44.256    -268.742     -65.041
  O       44.130    -267.334     -65.016
  C       45.606    -269.233     -65.556
  O       46.656    -268.322     -65.198
  C       45.773    -270.585     -64.822
  N       45.625    -271.726     -65.710
  C       46.816    -272.319     -66.147
  O       47.903    -271.857     -65.790
  N       46.743    -273.390     -67.001
  C       45.587    -273.824     -67.390
  N       45.574    -274.892     -68.236
  C       44.309    -273.217     -66.970
  C       44.401    -272.177     -66.143
  O       41.797    -272.421     -63.618
  O       40.423    -270.939     -62.031
  H       46.507    -267.520     -65.743
  H       42.238    -272.675     -62.784
  H       43.370    -273.618     -67.324
  H       43.512    -271.668     -65.788
  H       46.766    -270.645     -64.357
  H       45.620    -269.324     -66.646
  H       43.451    -269.186     -65.641
  H       44.892    -268.711     -62.973
  H       46.468    -275.285     -68.512
  H       42.909    -270.028     -62.119
  H       44.725    -275.320     -68.577
  H       42.519    -268.393     -62.693
  P       43.099    -266.659     -66.037
  C       43.075    -266.396     -68.590
  O       43.869    -266.635     -67.443
  O       43.153    -265.116     -65.600
  O       41.706    -267.193     -66.052
  H       42.482    -264.609     -66.092
  H       43.734    -266.251     -69.448
  H       42.466    -265.498     -68.454
  H       42.428    -267.258     -68.783
  H       38.205    -270.353     -65.477
  H       39.450    -269.249     -64.946
  H       38.377    -269.981     -63.778

 3  4  5  6  7  8  9  10  11  12  13  21  23  27  28  29  30  32 0
 6-311+G(2d,p)
 ****
 34  35 0
 6-311+G(2d,p)
 ****
 1  2  14  15  16  17  18  19  20  22  24  25  26 0
 3-21G
 ****
 31  33  36  37  38  39  40  41  42  43  44  45  46 0
 3-21G
 ****


