%nproc=1
%NoSave
%Mem=1900MB
#P OB98/GEN NMR

erre ene a

0 1
  C      215.371    -664.810     -89.968
  O      214.742    -665.612     -88.984
  H      215.967    -664.042     -89.464
  H      214.625    -664.318     -90.596
  H      216.036    -665.420     -90.586
  P      213.681    -666.719     -89.446
  C      214.977    -668.691     -88.415
  O      213.782    -667.921     -88.390
  C      215.493    -668.948     -86.997
  O      216.079    -667.714     -86.492
  C      214.392    -669.384     -86.011
  O      214.952    -670.355     -85.123
  C      214.077    -668.103     -85.270
  O      213.500    -668.360     -84.002
  C      215.435    -667.393     -85.245
  N      215.268    -665.947     -85.066
  C      214.930    -665.510     -83.784
  O      214.786    -666.331     -82.867
  N      214.680    -664.182     -83.584
  C      214.724    -663.350     -84.584
  N      214.442    -662.042     -84.319
  C      215.060    -663.773     -85.964
  C      215.324    -665.073     -86.131
  O      213.747    -667.141     -90.876
  O      212.266    -666.048     -89.103
  H      214.181    -668.728     -83.404
  H      211.936    -665.549     -89.872
  H      215.072    -663.045     -86.762
  H      215.570    -665.472     -87.110
  H      216.054    -667.784     -84.425
  H      213.354    -667.516     -85.855
  H      213.506    -669.805     -86.517
  H      216.294    -669.691     -87.047
  H      214.190    -661.812     -83.364
  H      215.727    -668.128     -88.982
  H      214.397    -661.326     -85.019
  H      214.788    -669.648     -88.926
  P      214.928    -671.916     -85.489
  C      217.228    -672.391     -84.436
  O      215.840    -672.717     -84.428
  O      215.221    -672.224     -86.920
  O      213.438    -672.381     -85.106
  H      213.165    -673.114     -85.695
  H      217.736    -672.977     -83.699
  H      217.352    -671.352     -84.213
  H      217.638    -672.600     -85.402

 6  7  8  9  10  11  12  13  14  15  16  26  30  31  32  33  35 0
 6-311+G(2d,p)
 ****
 37  38 0
 6-311+G(2d,p)
 ****
 1  2  3  4  5  17  18  19  20  21  22  23  24  25 0
 3-21G
 ****
 27  28  29  34  36  39  40  41  42  43  44  45  46 0
 3-21G
 ****


