%nproc=1
%NoSave
%Mem=1900MB
#P OB98/GEN NMR

erre ene a

0 1
  C       35.249    -759.584     461.367
  O       33.974    -759.284     461.893
  H       35.916    -759.843     462.191
  H       35.655    -758.709     460.847
  H       35.188    -760.429     460.678
  P       32.818    -758.895     460.844
  C       32.233    -756.576     461.881
  O       31.829    -757.924     461.664
  C       31.041    -755.733     462.339
  O       30.417    -755.125     461.179
  C       29.971    -756.534     463.080
  O       29.517    -755.790     464.213
  C       28.854    -756.691     462.061
  O       27.577    -756.868     462.678
  C       29.006    -755.419     461.218
  N       28.465    -755.590     459.872
  C       27.071    -755.661     459.759
  O       26.363    -755.587     460.767
  N       26.512    -755.858     458.520
  C       27.283    -756.040     457.491
  N       26.672    -756.257     456.293
  C       28.758    -756.024     457.571
  C       29.272    -755.794     458.777
  O       31.989    -760.251     460.709
  O       33.301    -758.342     459.546
  H       27.627    -757.660     463.253
  H       31.373    -760.223     459.935
  H       29.357    -756.198     456.688
  H       30.348    -755.767     458.928
  H       28.497    -754.573     461.697
  H       29.051    -757.577     461.442
  H       30.329    -757.505     463.419
  H       31.417    -754.902     462.955
  H       25.655    -756.271     456.281
  H       32.639    -756.171     460.950
  H       27.170    -756.438     455.436
  H       33.010    -756.558     462.656
  P       30.307    -756.057     465.591
  C       28.033    -756.507     466.747
  O       29.272    -755.823     466.794
  O       31.314    -754.816     465.692
  O       31.018    -757.372     465.620
  H       32.207    -755.079     465.398
  H       27.453    -756.254     467.610
  H       28.209    -757.562     466.733
  H       27.501    -756.222     465.863

 6  7  8  9  10  11  12  13  14  15  16  26  30  31  32  33  35 0
 6-311+G(2d,p)
 ****
 37  38 0
 6-311+G(2d,p)
 ****
 1  2  3  4  5  17  18  19  20  21  22  23  24  25 0
 3-21G
 ****
 27  28  29  34  36  39  40  41  42  43  44  45  46 0
 3-21G
 ****


