%nproc=1
%NoSave
%Mem=1900MB
#P OB98/GEN NMR

erre ene a

0 1
  C      -79.906    -148.398     285.424
  O      -80.525    -148.175     286.674
  H      -80.155    -149.406     285.088
  H      -78.821    -148.317     285.515
  H      -80.274    -147.682     284.684
  P      -80.269    -146.782     287.424
  C      -77.889    -147.249     288.307
  O      -78.687    -146.517     287.382
  C      -76.505    -146.603     288.436
  O      -75.787    -147.305     289.484
  C      -75.686    -146.703     287.143
  O      -75.177    -145.443     286.708
  C      -74.685    -147.811     287.446
  O      -73.484    -147.734     286.706
  C      -74.507    -147.714     288.964
  N      -74.075    -148.961     289.589
  C      -72.713    -149.117     289.831
  O      -71.849    -148.284     289.569
  N      -72.345    -150.306     290.409
  C      -73.181    -151.330     290.748
  O      -72.794    -152.368     291.268
  C      -74.604    -151.116     290.444
  C      -74.979    -149.961     289.888
  O      -80.887    -146.654     288.776
  O      -80.843    -145.683     286.409
  H      -72.941    -147.025     287.110
  H      -81.697    -145.346     286.744
  H      -71.364    -150.423     290.603
  H      -75.296    -151.915     290.688
  H      -76.024    -149.772     289.651
  H      -73.776    -146.946     289.219
  H      -75.152    -148.773     287.205
  H      -76.319    -147.018     286.305
  H      -76.626    -145.565     288.762
  H      -77.796    -148.274     287.934
  H      -78.382    -147.269     289.284
  P      -75.614    -144.688     285.373
  C      -73.444    -144.849     283.894
  O      -74.774    -145.285     284.151
  O      -75.705    -143.202     285.463
  O      -77.101    -145.246     285.088
  H      -77.589    -144.518     284.658
  H      -73.058    -145.365     283.039
  H      -72.829    -145.059     284.744
  H      -73.444    -143.796     283.705

 6  7  8  9  10  11  12  13  14  15  16  26  31  32  33  34  35 0
 6-311+G(2d,p)
 ****
 36  37 0
 6-311+G(2d,p)
 ****
 1  2  3  4  5  17  18  19  20  21  22  23  24  25 0
 3-21G
 ****
 27  28  29  30  38  39  40  41  42  43  44  45 0
 3-21G
 ****


