%nproc=1
%NoSave
%Mem=1900MB
#P OB98/GEN NMR

erre ene a

0 1
  C      937.996    -131.890     105.961
  O      936.898    -132.322     105.188
  H      937.622    -131.536     106.927
  H      938.496    -131.062     105.455
  H      938.706    -132.700     106.136
  P      937.167    -133.278     103.935
  C      935.071    -134.599     104.662
  O      935.790    -134.027     103.580
  C      933.761    -135.249     104.203
  O      932.772    -134.236     103.926
  C      933.938    -136.040     102.903
  O      934.412    -137.368     103.057
  C      932.515    -136.037     102.346
  O      931.739    -137.113     102.903
  C      931.974    -134.679     102.816
  N      929.256    -131.948      99.457
  C      928.829    -132.953     100.317
  N      927.525    -133.302     100.222
  N      929.616    -133.550     101.165
  C      930.913    -133.162     101.078
  C      931.450    -132.193     100.262
  C      930.560    -131.493      99.363
  O      930.886    -130.603      98.578
  N      932.811    -132.067     100.458
  C      933.094    -133.008     101.335
  N      931.972    -133.683     101.765
  O      938.052    -134.469     104.555
  O      937.868    -132.638     102.777
  H      930.861    -137.104     102.489
  H      938.606    -134.869     103.861
  H      928.603    -131.503      98.852
  H      934.088    -133.228     101.713
  H      930.944    -134.766     103.181
  H      932.508    -136.168     101.259
  H      926.914    -132.949      99.505
  H      934.582    -135.496     102.205
  H      927.243    -134.197     100.633
  H      933.369    -135.879     105.009
  H      934.861    -133.791     105.365
  H      935.694    -135.326     105.187
  P      935.614    -137.898     102.138
  C      936.684    -139.271     104.071
  O      936.121    -139.278     102.777
  O      936.801    -136.863     102.470
  O      935.318    -137.945     100.681
  H      936.828    -136.166     101.794
  H      936.967    -140.267     104.342
  H      935.964    -138.902     104.771
  H      937.548    -138.639     104.081

 6  7  8  9  10  11  12  13  14  15  26  29  33  34 0
 6-311+G(2d,p)
 ****
 36  38  39  40  41 0
 6-311+G(2d,p)
 ****
 1  2  3  4  5  16  17  18  19  20  21  22  23  24  25 0
 3-21G
 ****
 27  28  30  31  32  35  37  42  43  44  45  46  47 0
 3-21G
 ****
 48  49 0
 3-21G
 ****


