%nproc=1
%NoSave
%Mem=1900MB
#P OB98/GEN NMR

erre ene a

0 1
  C       52.044      20.324      55.783
  O       52.478      21.181      54.752
  H       50.979      20.502      55.957
  H       52.582      20.537      56.710
  H       52.182      19.278      55.501
  P       54.023      21.164      54.315
  C       53.880      19.243      52.618
  O       54.331      19.636      53.907
  C       54.920      19.573      51.547
  O       56.184      18.941      51.887
  C       54.530      19.099      50.139
  O       54.752      20.149      49.196
  C       55.496      17.957      49.867
  O       55.706      17.723      48.477
  C       56.722      18.422      50.658
  N       57.674      17.341      50.880
  C       59.022      17.655      50.679
  O       59.349      18.793      50.340
  N       59.958      16.664      50.812
  C       59.580      15.453      51.075
  N       60.556      14.512      51.164
  C       58.165      15.071      51.267
  C       57.274      16.056      51.160
  O       54.960      21.752      55.314
  O       54.057      21.917      52.903
  H       56.252      16.913      48.377
  H       54.969      22.255      52.744
  H       57.901      14.046      51.479
  H       56.212      15.872      51.284
  H       57.238      19.241      50.138
  H       55.097      17.033      50.307
  H       53.493      18.771      50.069
  H       55.104      20.655      51.564
  H       61.512      14.816      51.018
  H       52.935      19.757      52.405
  H       60.381      13.534      51.340
  H       53.708      18.162      52.627
  P       53.749      20.203      47.945
  C       52.271      22.241      48.576
  O       52.361      20.829      48.450
  O       53.406      18.663      47.681
  O       54.339      20.850      46.736
  H       53.820      18.370      46.847
  H       51.293      22.507      48.920
  H       52.450      22.696      47.624
  H       53.002      22.584      49.279

 6  7  8  9  10  11  12  13  14  15  16  26  30  31  32  33  35 0
 6-311+G(2d,p)
 ****
 37  38 0
 6-311+G(2d,p)
 ****
 1  2  3  4  5  17  18  19  20  21  22  23  24  25 0
 3-21G
 ****
 27  28  29  34  36  39  40  41  42  43  44  45  46 0
 3-21G
 ****


