%nproc=1
%NoSave
%Mem=1900MB
#P OB98/GEN NMR

erre ene a

0 1
  C      487.814     559.712     164.273
  O      488.934     560.318     163.636
  P      489.573     561.719     164.069
  C      489.510     562.173     166.648
  O      490.165     561.570     165.547
  C      489.909     561.560     168.004
  O      489.702     560.122     167.969
  C      491.407     561.774     168.265
  O      491.860     562.995     168.818
  C      491.835     560.544     169.047
  O      491.804     560.748     170.460
  C      490.812     559.486     168.637
  N      491.609     554.482     167.888
  C      491.019     555.126     168.962
  N      490.630     554.343     169.994
  N      490.837     556.416     169.024
  C      491.348     557.089     167.965
  C      491.970     556.569     166.857
  C      492.112     555.130     166.772
  O      492.614     554.514     165.830
  N      492.372     557.558     165.999
  C      492.021     558.674     166.596
  N      491.385     558.443     167.795
  O      488.734     562.920     163.796
  O      490.890     561.832     163.141
  H      490.885     560.923     170.718
  H      491.022     562.779     162.953
  H      491.695     553.483     167.881
  H      492.187     559.676     166.217
  H      490.395     558.978     169.516
  H      492.875     560.276     168.797
  H      490.849     553.361     170.055
  H      491.912     561.698     167.298
  H      490.404     554.823     170.865
  H      489.276     561.935     168.805
  H      488.433     562.053     166.482
  H      489.706     563.242     166.660
  P      492.945     563.982     168.170
  C      493.123     565.521     166.134
  O      492.268     564.718     166.923
  O      493.995     562.992     167.472
  O      493.637     564.885     169.142
  H      494.826     563.461     167.271
  H      492.513     566.199     165.525
  H      493.725     564.895     165.473
  H      493.791     566.123     166.767
  H      487.589     558.783     163.792
  H      486.968     560.364     164.203
  H      488.043     559.534     165.303

 3  4  5  6  7  8  9  10  11  12  23  26  30  31 0
 6-311+G(2d,p)
 ****
 33  35  36  37  38 0
 6-311+G(2d,p)
 ****
 1  2  13  14  15  16  17  18  19  20  21  22  24  25 0
 3-21G
 ****
 27  28  29  32  34  39  40  41  42  43  44  45  46  47  48  49 0
 3-21G
 ****


