%nproc=1
%NoSave
%Mem=1900MB
#P OB98/GEN NMR

erre ene a

0 1
  C       56.345    -389.295     125.302
  O       56.780    -387.949     125.324
  H       55.273    -389.311     125.094
  H       56.520    -389.772     126.271
  H       56.860    -389.847     124.511
  P       58.307    -387.646     125.725
  C       58.899    -388.071     123.234
  O       59.170    -388.396     124.590
  C       60.181    -388.115     122.412
  O       60.759    -389.439     122.417
  C       60.009    -387.776     120.934
  O       59.804    -386.395     120.687
  C       61.340    -388.273     120.391
  O       62.375    -387.333     120.716
  C       61.516    -389.593     121.182
  N       61.051    -390.769     120.442
  C       61.771    -391.108     119.288
  O       62.745    -390.437     118.940
  N       61.353    -392.182     118.542
  C       60.298    -392.847     118.898
  N       59.897    -393.871     118.093
  C       59.516    -392.533     120.110
  C       59.938    -391.495     120.823
  O       58.693    -387.960     127.133
  O       58.527    -386.109     125.332
  H       63.184    -387.621     120.250
  H       59.455    -385.870     125.571
  H       58.639    -393.115     120.357
  H       59.407    -391.190     121.719
  H       62.565    -389.744     121.464
  H       61.344    -388.393     119.300
  H       59.203    -388.376     120.487
  H       60.910    -387.444     122.894
  H       60.433    -394.032     117.242
  H       58.444    -387.072     123.207
  H       58.957    -394.247     118.137
  H       58.189    -388.790     122.807
  P       59.137    -385.967     119.291
  C       56.908    -385.254     120.443
  O       57.547    -386.082     119.483
  O       59.495    -387.199     118.332
  O       59.591    -384.652     118.729
  H       60.307    -387.029     117.828
  H       55.857    -385.455     120.444
  H       57.075    -384.227     120.195
  H       57.311    -385.457     121.413

 6  7  8  9  10  11  12  13  14  15  16  26  30  31  32  33  35 0
 6-311+G(2d,p)
 ****
 37  38 0
 6-311+G(2d,p)
 ****
 1  2  3  4  5  17  18  19  20  21  22  23  24  25 0
 3-21G
 ****
 27  28  29  34  36  39  40  41  42  43  44  45  46 0
 3-21G
 ****


