%nproc=1
%NoSave
%Mem=1900MB
#P OB98/GEN NMR

erre ene a

0 1
  C       -7.831     131.799     -93.402
  O       -7.896     132.620     -92.254
  H       -7.412     130.830     -93.115
  H       -7.184     132.252     -94.159
  H       -8.833     131.644     -93.809
  P       -8.435     134.115     -92.472
  C       -6.126     135.194     -92.083
  O       -7.159     134.924     -93.023
  C       -5.434     136.516     -92.418
  O       -4.825     136.398     -93.731
  C       -6.389     137.714     -92.459
  O       -5.710     138.869     -91.963
  C       -6.656     137.893     -93.944
  O       -7.078     139.214     -94.265
  C       -5.310     137.485     -94.538
  N       -3.661     138.412     -99.265
  C       -3.240     138.848     -98.058
  N       -3.724     138.529     -96.840
  C       -4.714     137.621     -96.946
  C       -5.250     137.086     -98.103
  C       -4.684     137.527     -99.313
  N       -5.128     137.118    -100.549
  N       -6.284     136.222     -97.800
  C       -6.363     136.228     -96.481
  N       -5.446     137.076     -95.925
  O       -9.119     134.733     -91.299
  O       -9.334     133.956     -93.786
  H       -7.765     139.486     -93.619
  H       -8.873     133.441     -94.475
  H       -2.411     139.551     -98.072
  H       -7.070     135.655     -95.891
  H       -4.572     138.297     -94.509
  H       -7.446     137.203     -94.265
  H       -7.306     137.552     -91.894
  H       -4.620     136.680     -91.704
  H       -5.389     134.384     -92.090
  H       -4.664     137.481    -101.366
  H       -5.885     136.453    -100.609
  H       -6.580     135.243     -91.087
  P       -6.220     139.547     -90.603
  C       -7.023     141.697     -91.774
  O       -7.385     140.597     -90.955
  O       -5.154     140.072     -89.702
  O       -7.032     138.357     -89.898
  H       -6.829     138.356     -88.942
  H       -7.879     142.319     -91.935
  H       -6.661     141.338     -92.715
  H       -6.256     142.265     -91.290

 6  7  8  9  10  11  12  13  14  15  25  28  32  33  34  35 0
 6-311+G(2d,p)
 ****
 36  39  40 0
 6-311+G(2d,p)
 ****
 1  2  3  4  5  16  17  18  19  20  21  22  23  24 0
 3-21G
 ****
 26  27  29  30  31  37  38  41  42  43  44  45  46  47 0
 3-21G
 ****
 48 0
 3-21G
 ****


