%nproc=1
%NoSave
%Mem=1900MB
#P OB98/GEN NMR

erre ene a

0 1
  C     -143.555     791.384    -741.635
  O     -143.281     790.856    -740.348
  H     -144.636     791.316    -741.809
  H     -143.038     790.794    -742.400
  H     -143.257     792.428    -741.701
  P     -141.778     790.925    -739.792
  C     -142.317     792.505    -737.832
  O     -141.618     792.340    -739.065
  C     -142.309     793.968    -737.393
  O     -142.947     794.779    -738.418
  C     -143.036     794.219    -736.061
  O     -142.320     795.207    -735.321
  C     -144.391     794.775    -736.513
  O     -144.980     795.626    -735.517
  C     -143.999     795.532    -737.784
  N     -148.097     798.306    -738.818
  C     -147.107     798.497    -737.877
  N     -147.247     799.561    -737.061
  N     -146.078     797.697    -737.724
  C     -146.071     796.666    -738.621
  C     -146.995     796.384    -739.608
  C     -148.133     797.257    -739.750
  O     -149.045     797.143    -740.554
  N     -146.648     795.235    -740.282
  C     -145.515     794.838    -739.709
  N     -145.138     795.672    -738.691
  O     -140.704     790.619    -740.795
  O     -141.764     789.877    -738.573
  H     -144.417     796.427    -735.456
  H     -141.366     789.031    -738.847
  H     -148.880     798.951    -738.876
  H     -144.953     793.965    -739.989
  H     -143.631     796.547    -737.588
  H     -145.071     793.958    -736.725
  H     -148.000     800.236    -737.119
  H     -143.156     793.302    -735.460
  H     -146.509     799.741    -736.368
  H     -141.263     794.299    -737.324
  H     -141.829     791.882    -737.074
  H     -143.361     792.158    -737.955
  P     -141.251     794.735    -734.237
  C     -139.251     795.893    -735.415
  O     -139.805     794.643    -734.957
  O     -141.613     793.532    -733.435
  O     -141.088     796.034    -733.305
  H     -140.864     795.740    -732.397
  H     -138.300     795.715    -735.872
  H     -139.129     796.555    -734.583
  H     -139.913     796.336    -736.130

 6  7  8  9  10  11  12  13  14  15  26  29  33  34 0
 6-311+G(2d,p)
 ****
 36  38  39  40  41 0
 6-311+G(2d,p)
 ****
 1  2  3  4  5  16  17  18  19  20  21  22  23  24  25 0
 3-21G
 ****
 27  28  30  31  32  35  37  42  43  44  45  46  47 0
 3-21G
 ****
 48  49 0
 3-21G
 ****


