%nproc=1
%NoSave
%Mem=1900MB
#P OB98/GEN NMR

erre ene a

0 1
  C     -712.813    -149.889      -2.896
  O     -711.775    -150.322      -2.035
  H     -713.674    -150.543      -2.764
  H     -712.484    -149.941      -3.937
  H     -713.108    -148.861      -2.644
  P     -710.477    -149.385      -1.936
  C     -710.748    -148.131       0.354
  O     -710.920    -148.127      -1.054
  C     -712.052    -147.760       1.067
  O     -713.013    -148.826       0.849
  C     -711.902    -147.562       2.574
  O     -712.792    -146.516       2.987
  C     -712.381    -148.887       3.149
  O     -712.811    -148.749       4.506
  C     -713.479    -149.278       2.150
  N     -713.755    -150.710       2.163
  C     -714.521    -151.185       3.227
  O     -714.918    -150.416       4.104
  N     -714.793    -152.528       3.305
  C     -714.278    -153.343       2.423
  N     -714.560    -154.669       2.556
  C     -713.422    -152.879       1.302
  C     -713.213    -151.567       1.233
  O     -710.385    -148.794      -3.424
  O     -709.243    -150.088      -1.476
  H     -712.150    -148.196       4.983
  H     -711.247    -148.507      -3.778
  H     -713.012    -153.599       0.605
  H     -712.611    -151.144       0.436
  H     -714.406    -148.735       2.364
  H     -711.564    -149.617       3.132
  H     -710.885    -147.310       2.870
  H     -712.469    -146.862       0.590
  H     -715.136    -154.935       3.358
  H     -709.965    -147.419       0.647
  H     -714.173    -155.382       1.974
  H     -710.424    -149.136       0.653
  P     -712.198    -145.079       3.339
  C     -713.560    -143.329       1.982
  O     -712.366    -144.100       2.066
  O     -710.852    -145.059       3.970
  O     -713.299    -144.481       4.351
  H     -712.824    -144.019       5.068
  H     -713.537    -142.731       1.095
  H     -713.635    -142.693       2.839
  H     -714.406    -143.984       1.948

 6  7  8  9  10  11  12  13  14  15  16  26  30  31  32  33  35 0
 6-311+G(2d,p)
 ****
 37  38 0
 6-311+G(2d,p)
 ****
 1  2  3  4  5  17  18  19  20  21  22  23  24  25 0
 3-21G
 ****
 27  28  29  34  36  39  40  41  42  43  44  45  46 0
 3-21G
 ****


