%nproc=1
%NoSave
%Mem=1900MB
#P OB98/GEN NMR

erre ene a

0 1
  C     -135.801    -894.420      -4.566
  O     -136.979    -895.170      -4.357
  P     -137.860    -895.680      -5.594
  C     -139.702    -896.560      -4.030
  O     -139.378    -895.680      -5.089
  C     -141.168    -896.420      -3.621
  O     -141.368    -895.200      -2.855
  C     -142.123    -896.290      -4.803
  O     -142.274    -897.410      -5.665
  C     -143.369    -895.760      -4.131
  O     -144.108    -896.820      -3.514
  C     -142.774    -894.820      -3.029
  N     -142.928    -893.420      -3.370
  C     -144.223    -892.920      -3.402
  O     -145.214    -893.610      -3.159
  N     -144.352    -891.610      -3.745
  C     -143.341    -890.760      -4.126
  O     -143.550    -889.600      -4.478
  C     -141.994    -891.340      -4.102
  C     -141.844    -892.620      -3.725
  O     -137.399    -896.960      -6.205
  O     -137.825    -894.430      -6.604
  H     -144.859    -896.430      -3.029
  H     -138.197    -893.610      -6.242
  H     -145.299    -891.240      -3.788
  H     -141.170    -890.690      -4.377
  H     -140.861    -893.080      -3.706
  H     -143.278    -895.010      -2.057
  H     -144.048    -895.270      -4.830
  H     -141.758    -895.470      -5.454
  H     -141.433    -897.250      -2.979
  H     -139.076    -896.320      -3.157
  H     -139.476    -897.600      -4.322
  P     -141.639    -897.490      -7.122
  C     -143.501    -899.150      -7.851
  O     -142.773    -897.970      -8.135
  O     -140.290    -898.150      -7.243
  O     -141.479    -895.940      -7.502
  H     -140.709    -895.830      -8.090
  H     -144.196    -899.340      -8.665
  H     -144.054    -899.040      -6.929
  H     -142.809    -900.000      -7.778
  H     -135.361    -894.177      -3.622
  H     -136.040    -893.519      -5.090
  H     -135.109    -894.996      -5.144

 3  4  5  6  7  8  9  10  11  12  13  23  28  29  30  31  32 0
 6-311+G(2d,p)
 ****
 33  34 0
 6-311+G(2d,p)
 ****
 1  2  14  15  16  17  18  19  20  21  22  24  25  26  27 0
 3-21G
 ****
 35  36  37  38  39  40  41  42  43  44  45 0
 3-21G
 ****


