%nproc=1
%NoSave
%Mem=1900MB
#P OB98/GEN NMR

erre ene a

0 1
  C      411.251     202.753    -318.927
  O      411.518     202.472    -317.571
  H      410.365     203.398    -318.981
  H      411.043     201.837    -319.479
  H      412.095     203.282    -319.384
  P      412.652     201.391    -317.207
  C      413.961     203.080    -315.776
  O      413.220     201.859    -315.769
  C      414.553     203.378    -314.394
  O      413.593     204.121    -313.610
  C      414.938     202.125    -313.593
  O      416.245     202.301    -313.031
  C      413.891     202.065    -312.494
  O      414.349     201.349    -311.348
  C      413.607     203.555    -312.270
  N      412.352     203.802    -311.574
  C      412.460     204.378    -310.296
  O      413.565     204.630    -309.821
  N      411.310     204.639    -309.594
  C      410.157     204.304    -310.085
  N      409.049     204.578    -309.333
  C      410.002     203.649    -311.404
  C      411.127     203.433    -312.090
  O      413.693     201.200    -318.260
  O      411.842     200.058    -316.855
  H      413.625     201.348    -310.677
  H      412.443     199.279    -316.929
  H      409.019     203.373    -311.767
  H      411.111     202.969    -313.074
  H      414.417     204.029    -311.713
  H      412.989     201.567    -312.868
  H      414.941     201.221    -314.194
  H      415.412     204.042    -314.526
  H      409.207     205.025    -308.434
  H      413.294     203.890    -316.092
  H      408.108     204.350    -309.616
  H      414.777     202.978    -316.499
  P      417.448     201.567    -313.808
  C      419.059     203.587    -313.535
  O      418.831     202.203    -313.281
  O      417.312     202.131    -315.304
  O      417.382     200.080    -313.766
  H      416.865     201.478    -315.871
  H      420.009     203.872    -313.133
  H      418.287     204.166    -313.072
  H      419.052     203.762    -314.591

 6  7  8  9  10  11  12  13  14  15  16  26  30  31  32  33  35 0
 6-311+G(2d,p)
 ****
 37  38 0
 6-311+G(2d,p)
 ****
 1  2  3  4  5  17  18  19  20  21  22  23  24  25 0
 3-21G
 ****
 27  28  29  34  36  39  40  41  42  43  44  45  46 0
 3-21G
 ****


