%nproc=1
%NoSave
%Mem=1900MB
#P OB98/GEN NMR

erre ene a

0 1
  C     -285.413     158.876     -42.567
  O     -284.002     158.791     -42.571
  H     -285.764     159.400     -43.461
  H     -285.825     157.863     -42.563
  H     -285.754     159.399     -41.669
  P     -283.204     160.179     -42.682
  C     -283.548     159.984     -45.244
  O     -283.605     160.821     -44.098
  C     -283.278     160.817     -46.492
  O     -284.319     161.800     -46.669
  C     -281.977     161.610     -46.460
  O     -280.849     160.796     -46.753
  C     -282.240     162.624     -47.565
  O     -281.991     162.019     -48.847
  C     -283.739     162.913     -47.401
  N     -285.506     167.719     -47.788
  C     -285.354     166.737     -48.706
  N     -284.869     165.492     -48.536
  C     -284.532     165.282     -47.253
  C     -284.631     166.186     -46.206
  C     -285.140     167.460     -46.512
  N     -285.276     168.459     -45.571
  N     -284.206     165.614     -45.026
  C     -283.852     164.386     -45.350
  N     -284.027     164.141     -46.688
  O     -281.683     159.721     -42.903
  O     -283.337     161.088     -41.506
  H     -282.352     162.632     -49.518
  H     -281.095     160.350     -42.446
  H     -285.668     166.989     -49.718
  H     -283.476     163.646     -44.656
  H     -284.249     162.955     -48.371
  H     -281.605     163.511     -47.493
  H     -281.855     162.137     -45.507
  H     -283.303     160.144     -47.359
  H     -284.504     159.462     -45.362
  H     -285.820     169.269     -45.804
  H     -285.003     168.250     -44.615
  H     -282.753     159.244     -45.100
  P     -279.522     161.028     -45.881
  C     -278.357     162.997     -47.105
  O     -279.182     162.589     -46.019
  O     -278.385     160.324     -46.760
  O     -279.572     160.479     -44.495
  H     -277.642     160.050     -46.186
  H     -278.218     164.057     -47.068
  H     -278.826     162.731     -48.029
  H     -277.407     162.510     -47.034

 6  7  8  9  10  11  12  13  14  15  25  28  32  33  34  35 0
 6-311+G(2d,p)
 ****
 36  39  40 0
 6-311+G(2d,p)
 ****
 1  2  3  4  5  16  17  18  19  20  21  22  23  24 0
 3-21G
 ****
 26  27  29  30  31  37  38  41  42  43  44  45  46  47  48 0
 3-21G
 ****


