%nproc=1
%NoSave
%Mem=1900MB
#P OB98/GEN NMR

erre ene a

0 1
  C      504.709     -92.082     -50.296
  O      503.526     -92.120     -49.499
  P      502.064     -92.429     -50.059
  C      501.471     -89.880     -50.219
  O      501.556     -91.143     -50.862
  C      500.293     -89.026     -50.715
  O      499.079     -89.822     -50.702
  C      500.049     -87.848     -49.773
  O      500.810     -86.664     -49.903
  C      498.544     -87.624     -49.816
  O      498.163     -86.635     -50.772
  C      497.997     -88.996     -50.223
  N      493.506     -90.115     -48.045
  C      493.769     -89.313     -49.137
  N      492.712     -88.687     -49.696
  N      494.967     -89.128     -49.627
  C      495.943     -89.741     -48.921
  C      495.808     -90.545     -47.813
  C      494.473     -90.791     -47.313
  O      494.181     -91.502     -46.357
  N      497.026     -90.976     -47.353
  C      497.897     -90.414     -48.166
  N      497.287     -89.660     -49.141
  O      501.113     -93.034     -49.081
  O      502.333     -93.520     -51.216
  H      498.464     -86.932     -51.649
  H      501.552     -94.110     -51.230
  H      492.562     -90.242     -47.725
  H      498.973     -90.524     -48.098
  H      497.284     -88.908     -51.051
  H      498.177     -87.274     -48.842
  H      491.788     -88.693     -49.296
  H      500.261     -88.204     -48.755
  H      492.927     -87.935     -50.352
  H      500.442     -88.728     -51.754
  H      502.420     -89.368     -50.401
  H      501.396     -90.018     -49.138
  P      502.090     -86.257     -49.030
  C      500.791     -84.497     -47.697
  O      501.569     -85.679     -47.632
  O      502.658     -84.951     -49.759
  O      503.146     -87.310     -48.926
  H      503.572     -84.772     -49.471
  H      500.758     -84.036     -46.707
  H      499.772     -84.748     -48.005
  H      501.221     -83.785     -48.406
  H      505.550     -91.854     -49.675
  H      504.607     -91.329     -51.050
  H      504.857     -93.034     -50.761

 3  4  5  6  7  8  9  10  11  12  23  26  30  31 0
 6-311+G(2d,p)
 ****
 33  35  36  37  38 0
 6-311+G(2d,p)
 ****
 1  2  13  14  15  16  17  18  19  20  21  22  24  25 0
 3-21G
 ****
 27  28  29  32  34  39  40  41  42  43  44  45  46  47  48  49 0
 3-21G
 ****


