%nproc=1
%NoSave
%Mem=1900MB
#P OB98/GEN NMR

erre ene a

0 1
  C     -123.699     -96.965     339.113
  O     -124.539     -96.098     339.850
  P     -126.067     -96.489     340.134
  C     -126.908     -94.785     338.384
  O     -126.851     -96.161     338.771
  C     -128.226     -94.478     337.674
  O     -128.479     -95.442     336.633
  C     -129.446     -94.517     338.583
  O     -129.524     -93.347     339.370
  C     -130.568     -94.672     337.559
  O     -130.935     -93.403     336.997
  C     -129.911     -95.571     336.493
  N     -130.342     -96.962     336.595
  C     -131.601     -97.254     336.053
  O     -132.287     -96.355     335.557
  N     -132.065     -98.545     336.131
  C     -131.356     -99.451     336.717
  N     -131.876    -100.707     336.774
  C     -130.036     -99.179     337.329
  C     -129.597     -97.925     337.235
  O     -126.658     -95.900     341.370
  O     -126.034     -98.093     340.144
  H     -131.573     -93.599     336.280
  H     -125.624     -98.441     340.974
  H     -129.483     -99.968     337.818
  H     -128.641     -97.638     337.653
  H     -130.153     -95.213     335.484
  H     -131.474     -95.100     338.001
  H     -129.407     -95.413     339.217
  H     -128.135     -93.488     337.206
  H     -132.792    -100.842     336.368
  H     -126.077     -94.583     337.707
  H     -131.422    -101.481     337.238
  H     -126.789     -94.159     339.273
  P     -130.052     -93.429     340.879
  C     -132.448     -92.598     340.480
  O     -131.635     -93.698     340.826
  O     -129.622     -92.313     341.772
  O     -129.463     -94.828     341.403
  H     -129.102     -94.705     342.299
  H     -133.427     -92.971     340.161
  H     -132.002     -92.024     339.665
  H     -132.581     -91.955     341.351
  H     -122.724     -96.532     339.030
  H     -124.108     -97.112     338.135
  H     -123.629     -97.907     339.616

 3  4  5  6  7  8  9  10  11  12  13  23  27  28  29  30  32 0
 6-311+G(2d,p)
 ****
 34  35 0
 6-311+G(2d,p)
 ****
 1  2  14  15  16  17  18  19  20  21  22  24  25  26 0
 3-21G
 ****
 31  33  36  37  38  39  40  41  42  43  44  45  46 0
 3-21G
 ****


