%nproc=1
%NoSave
%Mem=1900MB
#P OB98/GEN NMR

erre ene a

0 1
  C       89.280     161.889     -93.563
  O       90.323     162.405     -92.759
  H       89.647     161.787     -94.589
  H       88.423     162.569     -93.567
  H       88.972     160.905     -93.202
  P       90.015     162.725     -91.221
  C       89.669     161.303     -89.086
  O       89.762     161.312     -90.507
  C       88.688     160.230     -88.617
  O       87.362     160.519     -89.100
  C       89.015     158.826     -89.117
  O       90.105     158.283     -88.401
  C       87.680     158.137     -88.899
  O       87.500     157.785     -87.517
  C       86.690     159.253     -89.312
  N       86.222     159.139     -90.690
  C       85.108     158.318     -90.894
  O       84.587     157.730     -89.945
  N       84.628     158.174     -92.174
  C       85.177     158.822     -93.153
  N       84.650     158.640     -94.392
  C       86.331     159.723     -92.972
  C       86.804     159.827     -91.732
  O       88.952     163.749     -90.959
  O       91.431     163.180     -90.629
  H       87.242     158.609     -87.059
  H       91.518     164.150     -90.661
  H       86.754     160.253     -93.816
  H       87.652     160.470     -91.514
  H       85.811     159.249     -88.653
  H       87.590     157.216     -89.476
  H       89.221     158.847     -90.192
  H       88.655     160.258     -87.521
  H       83.845     158.025     -94.462
  H       89.316     162.294     -88.780
  H       84.890     159.209     -95.191
  H       90.655     161.135     -88.636
  P       90.935     157.028     -88.957
  C       92.555     156.686     -90.925
  O       91.522     157.491     -90.381
  O       90.196     155.735     -88.971
  O       92.244     157.006     -88.035
  H       92.035     156.621     -87.148
  H       92.863     157.090     -91.867
  H       92.194     155.689     -91.065
  H       93.388     156.672     -90.253

 6  7  8  9  10  11  12  13  14  15  16  26  30  31  32  33  35 0
 6-311+G(2d,p)
 ****
 37  38 0
 6-311+G(2d,p)
 ****
 1  2  3  4  5  17  18  19  20  21  22  23  24  25 0
 3-21G
 ****
 27  28  29  34  36  39  40  41  42  43  44  45  46 0
 3-21G
 ****


