%nproc=1
%NoSave
%Mem=1900MB
#P OB98/GEN NMR

erre ene a

0 1
  C      190.981      20.867     -51.781
  O      192.057      21.669     -51.284
  P      192.222      21.741     -49.684
  C      193.814      19.705     -49.378
  O      193.655      21.116     -49.323
  C      194.893      19.244     -48.401
  O      194.766      17.840     -48.114
  C      196.315      19.417     -48.915
  O      196.766      20.755     -48.776
  C      197.081      18.490     -47.981
  O      197.360      19.166     -46.742
  C      196.080      17.346     -47.755
  N      199.194      13.404     -48.423
  C      199.231      14.412     -47.480
  N      200.226      14.344     -46.568
  N      198.374      15.396     -47.433
  C      197.416      15.318     -48.388
  C      197.272      14.372     -49.376
  C      198.248      13.305     -49.436
  O      198.279      12.406     -50.270
  N      196.172      14.622     -50.155
  C      195.633      15.701     -49.623
  N      196.361      16.170     -48.556
  O      191.194      20.628     -49.168
  O      191.932      23.084     -49.106
  H      196.498      19.391     -46.338
  H      190.889      20.848     -48.268
  H      199.885      12.674     -48.417
  H      194.723      16.176     -49.966
  H      196.036      17.043     -46.703
  H      198.044      18.173     -48.393
  H      200.877      13.577     -46.501
  H      196.405      19.058     -49.949
  H      200.248      15.056     -45.847
  H      194.765      19.804     -47.465
  H      194.088      19.402     -50.391
  H      192.853      19.231     -49.153
  P      196.867      21.638     -50.112
  C      194.442      22.192     -50.848
  O      195.574      22.584     -50.099
  O      196.561      20.578     -51.271
  O      198.179      22.319     -50.307
  H      197.009      20.842     -52.096
  H      194.237      21.125     -50.729
  H      194.603      22.420     -51.906
  H      193.574      22.756     -50.495
  H      190.977      20.899     -52.851
  H      190.052      21.246     -51.409
  H      191.110      19.856     -51.455

 3  4  5  6  7  8  9  10  11  12  23  26  30  31  33  0
 6-311+G(2d,p)
 ****
 35  36  37  38 0
 6-311+G(2d,p)
 ****
 1  2  13  14  15  16  17  18  19  20  21  22  24  25  27  28  29 0
 3-21G
 ****
 32  34  39  40  41  42  43  44  45  46  47  48  49 0
 3-21G
 ****


