%nproc=1
%NoSave
%Mem=1900MB
#P OB98/GEN NMR

erre ene a

0 1
  C       76.987     241.841    -155.727
  O       76.552     241.108    -156.855
  H       77.830     241.315    -155.270
  H       76.179     241.911    -154.996
  H       77.314     242.843    -156.020
  P       75.455     241.811    -157.791
  C       73.769     239.837    -157.800
  O       74.038     241.171    -157.393
  C       72.279     239.661    -158.079
  O       71.514     239.870    -156.870
  C       71.715     240.632    -159.111
  O       71.956     240.188    -160.440
  C       70.236     240.572    -158.773
  O       69.663     239.357    -159.300
  C       70.266     240.522    -157.239
  N       67.877     244.993    -157.143
  C       67.670     243.892    -157.954
  N       66.692     244.003    -158.880
  N       68.360     242.785    -157.870
  C       69.314     242.822    -156.908
  C       69.613     243.850    -156.043
  C       68.837     245.065    -156.140
  O       68.962     246.060    -155.431
  N       70.638     243.513    -155.199
  C       70.972     242.291    -155.566
  N       70.203     241.828    -156.604
  O       75.747     241.186    -159.238
  O       75.503     243.302    -157.825
  H       70.230     238.624    -158.995
  H       75.585     241.871    -159.915
  H       67.325     245.824    -157.257
  H       71.758     241.701    -155.113
  H       69.447     239.924    -156.825
  H       69.671     241.402    -159.200
  H       66.157     244.844    -159.028
  H       72.085     241.651    -158.950
  H       66.500     243.198    -159.463
  H       72.115     238.622    -158.395
  H       74.071     239.150    -157.004
  H       74.349     239.617    -158.702
  P       72.665     241.217    -161.451
  C       70.439     241.367    -162.783
  O       71.473     242.070    -162.103
  O       73.141     240.271    -162.653
  O       73.793     241.998    -160.869
  H       73.880     240.691    -163.134
  H       69.722     242.065    -163.161
  H       69.958     240.694    -162.104
  H       70.860     240.813    -163.596

 6  7  8  9  10  11  12  13  14  15  26  29  33  34 0
 6-311+G(2d,p)
 ****
 36  38  39  40  41 0
 6-311+G(2d,p)
 ****
 1  2  3  4  5  16  17  18  19  20  21  22  23  24  25 0
 3-21G
 ****
 27  28  30  31  32  35  37  42  43  44  45  46  47 0
 3-21G
 ****
 48  49 0
 3-21G
 ****


