%nproc=1
%NoSave
%Mem=1900MB
#P OB98/GEN NMR

erre ene a

0 1
  C      -88.774     221.454     -85.852
  O      -89.332     220.908     -84.674
  H      -88.927     220.746     -86.671
  H      -87.701     221.612     -85.725
  H      -89.261     222.399     -86.111
  P      -89.362     221.804     -83.346
  C      -86.837     221.408     -83.008
  O      -87.877     222.372     -83.134
  C      -85.685     221.993     -82.194
  O      -85.163     223.177     -82.841
  C      -86.081     222.428     -80.788
  O      -86.234     221.308     -79.937
  C      -84.921     223.349     -80.445
  O      -83.762     222.597     -80.049
  C      -84.672     224.054     -81.802
  N      -85.306     225.372     -81.882
  C      -84.448     226.454     -82.052
  O      -83.227     226.341     -82.133
  N      -85.046     227.687     -82.086
  C      -86.372     227.937     -81.875
  O      -86.827     229.062     -81.695
  C      -87.237     226.753     -81.774
  C      -86.672     225.543     -81.766
  O      -89.970     221.160     -82.143
  O      -90.182     223.107     -83.790
  H      -91.101     223.037     -83.465
  H      -83.477     222.094     -80.838
  H      -84.428     228.483     -82.162
  H      -88.304     226.907     -81.672
  H      -87.287     224.657     -81.664
  H      -83.595     224.181     -81.975
  H      -85.156     224.027     -79.623
  H      -87.004     223.019     -80.823
  H      -84.881     221.247     -82.158
  H      -86.479     221.151     -84.011
  H      -87.236     220.510     -82.529
  P      -87.211     221.357     -78.670
  C      -85.513     222.536     -77.158
  O      -86.793     222.613     -77.769
  O      -87.342     220.071     -77.922
  O      -88.624     221.807     -79.280
  H      -89.309     221.166     -79.007
  H      -85.338     223.422     -76.584
  H      -84.761     222.447     -77.914
  H      -85.475     221.681     -76.516

 6  7  8  9  10  11  12  13  14  15  16  27  31  32  33  34  35 0
 6-311+G(2d,p)
 ****
 36  37 0
 6-311+G(2d,p)
 ****
 1  2  3  4  5  17  18  19  20  21  22  23  24  25 0
 3-21G
 ****
 26  28  29  30  38  39  40  41  42  43  44  45 0
 3-21G
 ****


