%nproc=1
%NoSave
%Mem=1900MB
#P OB98/GEN NMR

erre ene a

0 1
  C     -155.388     189.180     -96.060
  O     -154.202     188.627     -96.600
  H     -155.244     190.255     -95.921
  H     -155.619     188.734     -95.088
  H     -156.225     189.022     -96.745
  P     -154.108     187.035     -96.751
  C     -154.602     187.186     -99.286
  O     -155.009     186.670     -98.023
  C     -154.627     186.080    -100.336
  O     -153.628     185.085    -100.038
  C     -155.953     185.334    -100.389
  O     -156.939     186.104    -101.046
  C     -155.536     184.061    -101.098
  O     -155.441     184.259    -102.514
  C     -154.141     183.807    -100.481
  N     -154.176     182.846     -99.384
  C     -153.294     181.764     -99.487
  O     -152.543     181.662    -100.455
  N     -153.307     180.816     -98.495
  C     -154.110     180.942     -97.486
  N     -154.072     179.966     -96.539
  C     -155.044     182.073     -97.333
  C     -155.027     182.976     -98.311
  O     -154.407     186.222     -95.528
  O     -152.617     186.795     -97.281
  H     -154.818     185.002    -102.638
  H     -152.002     186.683     -96.533
  H     -155.692     182.140     -96.472
  H     -155.682     183.841     -98.275
  H     -153.446     183.433    -101.243
  H     -156.247     183.255    -100.923
  H     -156.277     185.069     -99.378
  H     -154.383     186.522    -101.310
  H     -153.422     179.203     -96.690
  H     -153.584     187.569     -99.165
  H     -154.585     180.004     -95.672
  H     -155.250     188.014     -99.593
  P     -158.477     185.649    -101.025
  C     -159.069     187.266     -99.105
  O     -158.976     185.906     -99.520
  O     -158.746     184.286    -101.566
  O     -159.209     186.814    -101.845
  H     -159.034     186.738    -102.815
  H     -159.410     187.307     -98.091
  H     -159.761     187.785     -99.735
  H     -158.106     187.727     -99.177

 6  7  8  9  10  11  12  13  14  15  16  26  30  31  32  33  35 0
 6-311+G(2d,p)
 ****
 37  38 0
 6-311+G(2d,p)
 ****
 1  2  3  4  5  17  18  19  20  21  22  23  24  25 0
 3-21G
 ****
 27  28  29  34  36  39  40  41  42  43  44  45  46 0
 3-21G
 ****


