%nproc=1
%NoSave
%Mem=1900MB
#P OB98/GEN NMR

erre ene a

0 1
  C      -37.211     231.651     512.166
  O      -38.250     230.894     512.787
  P      -38.614     229.443     512.216
  C      -40.242     228.408     510.501
  O      -39.674     229.604     511.020
  C      -40.980     228.677     509.179
  O      -42.017     229.677     509.393
  C      -40.057     229.187     508.067
  O      -40.188     228.450     506.846
  C      -40.376     230.668     507.988
  O      -40.055     231.243     506.724
  C      -41.846     230.719     508.415
  N      -42.220     232.038     508.938
  C      -43.542     232.419     508.792
  O      -44.379     231.739     508.187
  N      -43.883     233.641     509.311
  C      -43.023     234.529     509.879
  O      -43.363     235.637     510.288
  C      -41.617     234.107     509.955
  C      -41.284     232.894     509.487
  O      -38.967     228.411     513.238
  O      -37.276     229.020     511.430
  H      -40.702     230.916     506.066
  H      -37.130     228.068     511.579
  H      -44.852     233.920     509.224
  H      -40.900     234.793     510.373
  H      -40.255     232.562     509.512
  H      -42.511     230.509     507.566
  H      -39.773     231.193     508.740
  H      -39.000     229.063     508.336
  H      -41.462     227.740     508.876
  H      -40.950     228.000     511.224
  H      -39.456     227.653     510.380
  P      -38.961     227.874     505.995
  C      -37.943     228.261     503.646
  O      -38.900     228.661     504.605
  O      -38.890     226.390     505.886
  O      -37.678     228.427     506.791
  H      -36.997     227.737     506.820
  H      -37.779     229.086     502.946
  H      -38.323     227.401     503.088
  H      -36.990     227.998     504.120
  H      -37.102     232.588     512.671
  H      -37.461     231.826     511.140
  H      -36.291     231.107     512.221

 3  4  5  6  7  8  9  10  11  12  13  23  28  29  30  31  32 0
 6-311+G(2d,p)
 ****
 33  34 0
 6-311+G(2d,p)
 ****
 1  2  14  15  16  17  18  19  20  21  22  24  25  26  27 0
 3-21G
 ****
 35  36  37  38  39  40  41  42  43  44  45 0
 3-21G
 ****


