%nproc=1
%NoSave
%Mem=1900MB
#P OB98/GEN NMR

erre ene a

0 1
  C     -758.231     984.041     193.470
  O     -758.158     984.274     194.872
  P     -758.594     983.094     195.888
  C     -756.572     983.335     197.538
  O     -757.986     983.408     197.333
  C     -756.155     984.159     198.760
  O     -756.247     985.562     198.485
  C     -757.040     983.936     199.995
  O     -756.721     982.693     200.641
  C     -756.685     985.150     200.831
  O     -755.479     984.958     201.576
  C     -756.496     986.240     199.745
  N     -757.654     987.150     199.660
  C     -757.638     988.224     200.508
  O     -756.779     988.407     201.374
  N     -758.696     989.101     200.408
  C     -759.777     988.932     199.553
  O     -760.719     989.738     199.509
  C     -759.766     987.729     198.714
  C     -758.724     986.887     198.815
  O     -757.672     981.879     195.408
  O     -760.031     982.723     195.871
  H     -755.547     984.119     202.049
  H     -758.112     981.036     195.602
  H     -758.711     989.898     201.006
  H     -760.609     987.549     198.058
  H     -758.678     985.998     198.205
  H     -755.594     986.829     199.950
  H     -757.503     985.400     201.567
  H     -758.085     983.970     199.712
  H     -755.097     983.924     198.992
  H     -756.049     983.724     196.654
  H     -756.293     982.268     197.659
  P     -757.964     981.839     201.193
  C     -757.607     979.704     199.717
  O     -757.545     980.294     200.989
  O     -759.058     982.112     200.027
  O     -758.395     982.238     202.562
  H     -758.639     982.217     199.185
  H     -757.371     980.419     198.922
  H     -758.597     979.284     199.561
  H     -756.865     978.895     199.670
  H     -757.909     984.917     192.946
  H     -759.241     983.813     193.198
  H     -757.598     983.218     193.212

 3  4  5  6  7  8  9  10  11  12  13  23  28  29  30  31  32 0
 6-311+G(2d,p)
 ****
 33  34 0
 6-311+G(2d,p)
 ****
 1  2  14  15  16  17  18  19  20  21  22  24  25  26 0
 3-21G
 ****
 27  35  36  37  38  39  40  41  42  43  44  45 0
 3-21G
 ****


