%nproc=1
%NoSave
%Mem=1900MB
#P OB98/GEN NMR

erre ene a

0 1
  C     -191.724      11.715     -60.777
  O     -191.039      12.943     -60.510
  P     -189.997      13.462     -61.618
  C     -191.655      15.074     -62.842
  O     -190.496      14.934     -62.036
  C     -192.493      16.278     -62.389
  O     -193.020      16.032     -61.046
  C     -191.725      17.605     -62.345
  O     -192.642      18.631     -62.770
  C     -191.393      17.768     -60.876
  O     -191.135      19.124     -60.534
  C     -192.654      17.168     -60.237
  N     -192.447      16.790     -58.837
  C     -192.547      17.808     -57.887
  O     -192.715      18.987     -58.188
  N     -192.402      17.419     -56.585
  C     -192.086      16.162     -56.147
  O     -191.966      15.871     -54.966
  C     -191.876      15.153     -57.207
  C     -192.067      15.512     -58.481
  O     -190.375      12.540     -62.868
  O     -188.574      13.370     -61.170
  H     -191.332      12.365     -62.942
  H     -191.055      19.197     -59.559
  H     -192.498      18.134     -55.877
  H     -191.569      14.160     -56.903
  H     -191.902      14.800     -59.281
  H     -193.480      17.887     -60.281
  H     -190.507      17.171     -60.621
  H     -190.843      17.613     -63.002
  H     -193.356      16.367     -63.062
  H     -192.270      14.171     -62.770
  H     -191.357      15.176     -63.895
  P     -192.331      19.408     -64.147
  C     -192.785      17.814     -66.180
  O     -193.282      18.775     -65.271
  O     -190.891      18.787     -64.498
  O     -192.306      20.901     -64.039
  H     -190.864      17.819     -64.417
  H     -193.629      17.341     -66.688
  H     -192.214      17.036     -65.659
  H     -192.143      18.302     -66.922
  H     -192.382      11.489     -59.964
  H     -191.010      10.926     -60.888
  H     -192.292      11.812     -61.678

 3  4  5  6  7  8  9  10  11  12  13  24  28  29  30  31  32 0
 6-311+G(2d,p)
 ****
 33  34 0
 6-311+G(2d,p)
 ****
 1  2  14  15  16  17  18  19  20  21  22  23  25  26  27 0
 3-21G
 ****
 35  36  37  38  39  40  41  42  43  44  45 0
 3-21G
 ****


