%nproc=1
%NoSave
%Mem=1900MB
#P OB98/GEN NMR

erre ene a

0 1
  C     -893.990     697.739    -332.023
  O     -893.230     697.842    -330.804
  P     -892.630     696.457    -330.231
  C     -891.460     697.813    -328.332
  O     -892.300     696.739    -328.690
  C     -891.970     698.483    -327.043
  O     -893.020     699.425    -327.346
  C     -892.540     697.508    -326.033
  O     -891.510     696.921    -325.276
  C     -893.460     698.436    -325.221
  O     -892.690     699.178    -324.236
  C     -894.010     699.380    -326.299
  N     -899.030     699.884    -325.918
  C     -898.030     700.344    -325.069
  N     -898.410     701.082    -324.016
  N     -896.740     700.100    -325.262
  C     -896.530     699.344    -326.372
  C     -897.430     698.828    -327.271
  C     -898.820     699.133    -327.073
  O     -899.750     698.847    -327.827
  N     -896.810     698.074    -328.230
  C     -895.510     698.183    -327.956
  N     -895.290     698.959    -326.850
  O     -891.190     696.388    -330.930
  O     -893.480     695.236    -330.490
  H     -892.380     698.570    -323.544
  H     -891.240     695.783    -331.714
  H     -900.000     700.120    -325.713
  H     -894.740     697.742    -328.545
  H     -894.150     700.400    -325.921
  H     -894.200     697.888    -324.662
  H     -899.380     701.286    -323.777
  H     -893.170     696.745    -326.539
  H     -897.690     701.410    -323.390
  H     -891.120     699.066    -326.595
  H     -891.460     698.554    -329.144
  H     -890.420     697.445    -328.191
  P     -891.750     695.401    -324.767
  C     -890.400     695.931    -322.597
  O     -891.590     695.430    -323.163
  O     -890.440     694.627    -325.281
  O     -892.990     694.757    -325.276
  H     -890.690     693.718    -325.540
  H     -890.630     696.347    -321.615
  H     -889.960     696.712    -323.230
  H     -889.680     695.107    -322.492
  H     -894.337     698.710    -332.310
  H     -894.828     697.092    -331.867
  H     -893.369     697.339    -332.797

 3  4  5  6  7  8  9  10  11  12  23  26  30  31 0
 6-311+G(2d,p)
 ****
 33  35  36  37  38 0
 6-311+G(2d,p)
 ****
 1  2  13  14  15  16  17  18  19  20  21  22  24  25 0
 3-21G
 ****
 27  28  29  32  34  39  40  41  42  43  44  45  46  47  48  49 0
 3-21G
 ****


