%nproc=1
%NoSave
%Mem=1900MB
#P OB98/GEN NMR

erre ene a

0 1
  C      150.617     111.898    -165.109
  O      150.740     110.678    -164.382
  P      149.698     110.163    -163.289
  C      151.520     109.296    -161.615
  O      150.400     109.005    -162.438
  C      152.208     108.036    -161.063
  O      151.237     107.231    -160.345
  C      152.733     107.166    -162.204
  O      153.987     107.449    -162.795
  C      152.596     105.739    -161.696
  O      153.795     105.254    -161.090
  C      151.477     105.842    -160.656
  N      148.872     101.483    -161.271
  C      150.174     101.670    -160.852
  N      150.895     100.555    -160.613
  N      150.723     102.844    -160.701
  C      149.921     103.871    -161.058
  C      148.621     103.811    -161.506
  C      148.001     102.508    -161.615
  O      146.848     102.287    -161.970
  N      148.131     105.060    -161.793
  C      149.139     105.870    -161.544
  N      150.249     105.195    -161.087
  O      148.320     109.892    -163.790
  O      149.608     111.396    -162.253
  H      154.516     105.343    -161.738
  H      148.693     111.399    -161.904
  H      148.490     100.556    -161.348
  H      149.119     106.945    -161.670
  H      151.766     105.360    -159.715
  H      152.368     105.055    -162.524
  H      150.570      99.625    -160.825
  H      152.013     107.253    -163.029
  H      151.905     100.679    -160.519
  H      152.975     108.301    -160.331
  H      151.156     109.923    -160.796
  H      152.243     109.897    -162.168
  P      154.346     107.348    -164.352
  C      156.767     106.627    -163.924
  O      155.919     107.597    -164.513
  O      153.716     108.678    -164.981
  O      153.823     106.132    -165.043
  H      153.649     108.597    -165.950
  H      157.771     107.047    -163.825
  H      156.813     105.743    -164.565
  H      156.403     106.340    -162.933
  H      151.448     112.001    -165.775
  H      150.604     112.721    -164.425
  H      149.707     111.887    -165.672

 3  4  5  6  7  8  9  10  11  12  23  26  30  31 0
 6-311+G(2d,p)
 ****
 33  35  36  37  38 0
 6-311+G(2d,p)
 ****
 1  2  13  14  15  16  17  18  19  20  21  22  24  25 0
 3-21G
 ****
 27  28  29  32  34  39  40  41  42  43  44  45  46  47  48  49 0
 3-21G
 ****


