%nproc=1
%NoSave
%Mem=1900MB
#P OB98/GEN NMR

erre ene a

0 1
  C      780.997     351.654    -480.458
  O      782.410     351.823    -480.487
  P      783.190     351.868    -479.080
  C      784.717     349.851    -479.706
  O      784.633     351.220    -479.340
  C      785.925     349.187    -479.029
  O      787.137     349.700    -479.640
  C      786.034     349.442    -477.520
  O      786.627     348.271    -476.947
  C      787.006     350.596    -477.438
  O      787.624     350.709    -476.161
  C      787.947     350.269    -478.591
  N      791.809     353.434    -477.763
  C      791.337     352.395    -476.980
  N      792.034     352.134    -475.856
  N      790.283     351.685    -477.282
  C      789.708     352.047    -478.450
  C      790.058     353.084    -479.289
  C      791.249     353.837    -478.967
  O      791.751     354.710    -479.674
  N      789.173     353.197    -480.340
  C      788.337     352.193    -480.168
  N      788.653     351.446    -479.068
  O      782.424     350.768    -478.214
  O      783.234     353.212    -478.413
  H      788.379     351.332    -476.240
  H      781.723     351.169    -477.674
  H      792.642     353.931    -477.497
  H      787.497     351.965    -480.811
  H      788.708     349.522    -478.296
  H      786.471     351.538    -477.630
  H      792.868     352.620    -475.576
  H      785.068     349.655    -477.044
  H      791.721     351.365    -475.275
  H      785.880     348.110    -479.241
  H      784.853     349.780    -480.795
  H      783.789     349.340    -479.435
  P      786.306     347.948    -475.404
  C      785.286     345.637    -475.987
  O      786.263     346.355    -475.242
  O      784.773     348.381    -475.260
  O      787.162     348.686    -474.422
  H      784.608     348.708    -474.362
  H      785.618     344.594    -476.096
  H      785.139     346.060    -476.976
  H      784.329     345.655    -475.443
  H      780.619     351.643    -481.459
  H      780.552     352.463    -479.917
  H      780.758     350.729    -479.976

 3  4  5  6  7  8  9  10  11  12  23  26  30  31 0
 6-311+G(2d,p)
 ****
 33  35  36  37  38 0
 6-311+G(2d,p)
 ****
 1  2  13  14  15  16  17  18  19  20  21  22  24  25 0
 3-21G
 ****
 27  28  29  32  34  39  40  41  42  43  44  45  46  47  48  49 0
 3-21G
 ****


