%nproc=1
%NoSave
%Mem=1900MB
#P OB98/GEN NMR

erre ene a

0 1
  C      522.847     300.256     257.099
  O      521.924     299.231     256.688
  P      520.369     299.463     257.006
  C      520.676     299.385     259.584
  O      520.107     298.766     258.439
  C      519.861     299.040     260.836
  O      518.507     299.499     260.674
  C      519.743     297.524     261.108
  O      520.900     297.012     261.759
  C      518.518     297.493     262.038
  O      518.943     297.804     263.373
  C      517.648     298.631     261.471
  N      512.651     297.915     261.064
  C      513.367     298.439     262.106
  N      512.689     298.859     263.196
  N      514.684     298.543     262.087
  C      515.241     298.121     260.931
  C      514.623     297.557     259.846
  C      513.174     297.411     259.888
  O      512.493     296.883     259.032
  N      515.525     297.282     258.846
  C      516.702     297.671     259.326
  N      516.571     298.162     260.621
  O      519.656     298.489     255.968
  O      519.886     300.871     256.876
  H      519.407     298.671     263.320
  H      518.728     298.811     255.785
  H      511.640     297.875     261.122
  H      517.629     297.628     258.796
  H      517.221     299.235     262.276
  H      518.044     296.520     262.055
  H      511.683     298.925     263.202
  H      519.496     296.971     260.184
  H      513.209     299.292     263.944
  H      520.309     299.543     261.693
  H      520.662     300.480     259.454
  H      521.701     299.065     259.708
  P      521.684     295.845     260.954
  C      520.502     294.060     262.427
  O      521.725     294.616     261.982
  O      523.198     296.397     260.932
  O      521.154     295.559     259.586
  H      523.669     296.013     260.193
  H      519.749     294.043     261.626
  H      520.125     294.611     263.283
  H      520.686     293.019     262.732
  H      523.841     299.971     256.825
  H      522.791     300.381     258.160
  H      522.595     301.177     256.617

 3  4  5  6  7  8  9  10  11  12  23  26  30  31  33  0
 6-311+G(2d,p)
 ****
 35  36  37  38 0
 6-311+G(2d,p)
 ****
 1  2  13  14  15  16  17  18  19  20  21  22  24  25  27  28  29 0
 3-21G
 ****
 32  34  39  40  41  42  43  44  45  46  47  48  49 0
 3-21G
 ****


