%nproc=1
%NoSave
%Mem=1900MB
#P OB98/GEN NMR

erre ene a

0 1
  C     -171.796     -79.460     -61.751
  O     -171.206     -78.191     -61.535
  P     -171.890     -77.200     -60.481
  C     -170.130     -77.442     -58.581
  O     -171.462     -77.680     -59.011
  C     -170.077     -77.306     -57.057
  O     -170.579     -78.533     -56.446
  C     -168.667     -77.059     -56.500
  O     -168.799     -76.217     -55.346
  C     -168.238     -78.449     -56.069
  O     -167.174     -78.441     -55.130
  C     -169.567     -78.984     -55.521
  N     -169.578     -80.437     -55.376
  C     -168.801     -80.985     -54.360
  O     -168.113     -80.321     -53.587
  N     -168.788     -82.352     -54.290
  C     -169.384     -83.208     -55.170
  O     -169.236     -84.424     -55.122
  C     -170.191     -82.574     -56.224
  C     -170.252     -81.241     -56.278
  O     -173.441     -77.584     -60.570
  O     -171.657     -75.749     -60.748
  H     -167.535     -78.131     -54.280
  H     -173.920     -76.941     -61.124
  H     -168.238     -82.766     -53.552
  H     -170.695     -83.224     -56.927
  H     -170.824     -80.747     -57.056
  H     -169.790     -78.519     -54.552
  H     -167.910     -79.018     -56.946
  H     -167.981     -76.609     -57.224
  H     -170.752     -76.494     -56.757
  H     -169.766     -76.520     -59.036
  H     -169.483     -78.260     -58.918
  P     -167.501     -75.405     -54.857
  C     -168.259     -73.270     -56.162
  O     -167.259     -74.237     -55.926
  O     -166.345     -76.468     -55.176
  O     -167.556     -74.994     -53.421
  H     -166.463     -76.899     -56.039
  H     -168.818     -73.037     -55.251
  H     -168.948     -73.639     -56.924
  H     -167.785     -72.354     -56.528
  H     -171.226     -79.999     -62.478
  H     -172.797     -79.332     -62.107
  H     -171.811     -80.007     -60.832

 3  4  5  6  7  8  9  10  11  12  13  23  28  29  30  31  32 0
 6-311+G(2d,p)
 ****
 33  34 0
 6-311+G(2d,p)
 ****
 1  2  14  15  16  17  18  19  20  21  22  24  25  26 0
 3-21G
 ****
 27  35  36  37  38  39  40  41  42  43  44  45 0
 3-21G
 ****


