%nproc=1
%NoSave
%Mem=1900MB
#P OB98/GEN NMR

erre ene a

0 1
  C      126.053    -161.365      22.128
  O      127.066    -162.197      22.660
  H      125.725    -161.788      21.175
  H      126.451    -160.365      21.946
  H      125.197    -161.314      22.804
  P      127.632    -161.887      24.127
  C      128.845    -159.793      23.231
  O      127.941    -160.312      24.196
  C      129.686    -158.661      23.830
  O      128.811    -157.542      24.131
  C      130.410    -159.049      25.121
  O      131.691    -158.420      25.147
  C      129.529    -158.466      26.209
  O      130.257    -158.186      27.404
  C      128.972    -157.219      25.528
  N      126.805    -154.280      29.021
  C      128.128    -154.382      28.639
  N      129.011    -153.600      29.297
  N      128.549    -155.184      27.696
  C      127.553    -155.892      27.108
  C      126.210    -155.881      27.397
  C      125.761    -155.004      28.458
  O      124.602    -154.883      28.851
  N      125.520    -156.755      26.593
  C      126.448    -157.295      25.824
  N      127.701    -156.813      26.105
  O      128.765    -162.763      24.564
  O      126.363    -162.050      25.084
  H      131.065    -157.697      27.139
  H      126.408    -162.882      25.588
  H      126.536    -153.655      29.760
  H      126.270    -158.036      25.056
  H      129.646    -156.360      25.608
  H      128.726    -159.173      26.455
  H      128.752    -152.942      30.015
  H      130.529    -160.128      25.220
  H      129.982    -153.633      29.014
  H      130.395    -158.315      23.069
  H      128.263    -159.410      22.387
  H      129.497    -160.598      22.876
  P      132.991    -159.283      24.769
  C      133.470    -160.372      27.046
  O      133.040    -160.586      25.709
  O      134.268    -158.516      24.688
  O      132.603    -159.898      23.339
  H      133.411    -159.959      22.790
  H      133.464    -161.302      27.576
  H      132.808    -159.683      27.527
  H      134.462    -159.971      27.042

 6  7  8  9  10  11  12  13  14  15  26  29  33  34 0
 6-311+G(2d,p)
 ****
 36  38  39  40  41 0
 6-311+G(2d,p)
 ****
 1  2  3  4  5  16  17  18  19  20  21  22  23  24  25 0
 3-21G
 ****
 27  28  30  31  32  35  37  42  43  44  45  46  47 0
 3-21G
 ****
 48  49 0
 3-21G
 ****


