%nproc=1
%NoSave
%Mem=1900MB
#P OB98/GEN NMR

erre ene a

0 1
  C       85.786     343.967      71.070
  O       86.692     344.991      71.424
  P       87.756     345.573      70.373
  C       89.884     344.683      69.240
  O       88.798     344.382      70.104
  C       91.221     344.288      69.874
  O       91.555     345.229      70.933
  C       91.253     342.880      70.479
  O       92.582     342.386      70.285
  C       90.997     343.151      71.949
  O       91.400     342.073      72.786
  C       91.764     344.465      72.138
  N       91.331     345.184      73.332
  C       91.873     344.764      74.550
  O       92.616     343.780      74.593
  N       91.522     345.431      75.696
  C       90.624     346.367      75.640
  N       90.318     346.997      76.807
  C       89.936     346.754      74.397
  C       90.344     346.138      73.287
  O       88.373     346.876      70.750
  O       86.935     345.629      69.000
  H       91.114     341.233      72.366
  H       86.325     346.410      68.994
  H       89.155     347.499      74.409
  H       89.900     346.356      72.326
  H       92.843     344.272      72.224
  H       89.922     343.312      72.113
  H       90.518     342.196      70.043
  H       91.999     344.381      69.104
  H       90.827     346.710      77.636
  H       89.886     345.760      69.062
  H       89.698     347.790      76.860
  H       89.747     344.181      68.278
  P       92.851     340.957      69.611
  C       92.220     338.523      70.087
  O       92.165     339.859      70.549
  O       94.277     340.684      69.260
  O       91.917     340.954      68.305
  H       92.204     340.241      67.705
  H       91.987     337.848      70.913
  H       93.217     338.282      69.700
  H       91.482     338.381      69.291
  H       85.170     343.729      71.912
  H       86.331     343.097      70.769
  H       85.170     344.300      70.260

 3  4  5  6  7  8  9  10  11  12  13  23  27  28  29  30  32 0
 6-311+G(2d,p)
 ****
 34  35 0
 6-311+G(2d,p)
 ****
 1  2  14  15  16  17  18  19  20  21  22  24  25  26 0
 3-21G
 ****
 31  33  36  37  38  39  40  41  42  43  44  45  46 0
 3-21G
 ****


