%nproc=1
%NoSave
%Mem=1900MB
#P OB98/GEN NMR

erre ene a

0 1
  C      231.945      -0.900     131.253
  O      231.998       0.044     132.305
  H      232.899      -1.432     131.211
  H      231.788      -0.382     130.303
  H      231.142      -1.625     131.420
  P      230.604       0.700     132.759
  C      230.886       2.469     130.877
  O      230.043       1.502     131.485
  C      230.294       2.929     129.548
  O      230.349       1.860     128.577
  C      228.833       3.362     129.628
  O      228.709       4.709     130.065
  C      228.419       3.222     128.173
  O      228.925       4.341     127.412
  C      229.150       1.936     127.755
  N      225.802      -1.231     125.635
  C      226.314      -0.037     125.165
  N      225.864       0.375     123.958
  N      227.184       0.690     125.814
  C      227.527       0.167     127.015
  C      227.085      -1.003     127.594
  C      226.135      -1.805     126.856
  O      225.659      -2.875     127.224
  N      227.653      -1.206     128.823
  C      228.423      -0.149     128.998
  N      228.380       0.716     127.933
  O      231.071       1.861     133.762
  O      229.644      -0.232     133.418
  H      228.650       4.204     126.486
  H      230.926       1.561     134.679
  H      225.125      -1.748     125.097
  H      229.034       0.033     129.871
  H      229.470       1.961     126.709
  H      227.334       3.213     128.041
  H      225.177      -0.125     123.415
  H      228.238       2.677     130.248
  H      226.229       1.246     123.592
  H      230.919       3.748     129.169
  H      231.873       2.024     130.704
  H      230.990       3.322     131.555
  P      227.504       5.076     131.055
  C      225.746       5.028     129.147
  O      226.159       4.489     130.396
  O      227.357       6.658     130.855
  O      227.722       4.726     132.487
  H      227.633       7.125     131.669
  H      224.844       4.547     128.832
  H      226.511       4.864     128.417
  H      225.572       6.079     129.252

 6  7  8  9  10  11  12  13  14  15  26  29  33  34 0
 6-311+G(2d,p)
 ****
 36  38  39  40  41 0
 6-311+G(2d,p)
 ****
 1  2  3  4  5  16  17  18  19  20  21  22  23  24  25 0
 3-21G
 ****
 27  28  30  31  32  35  37  42  43  44  45  46  47 0
 3-21G
 ****
 48  49 0
 3-21G
 ****


