%nproc=1
%NoSave
%Mem=1900MB
#P OB98/GEN NMR

erre ene a

0 1
  C     -114.966      16.269     116.551
  O     -114.284      17.435     116.073
  P     -113.921      18.583     117.132
  C     -115.229      20.031     118.854
  O     -115.285      19.208     117.698
  C     -116.323      21.103     118.803
  O     -116.102      22.043     117.731
  C     -117.717      20.543     118.567
  O     -118.297      20.062     119.770
  C     -118.455      21.782     118.084
  O     -118.822      22.602     119.211
  C     -117.387      22.488     117.241
  N     -118.270      24.453     112.593
  C     -118.292      25.007     113.826
  N     -118.065      24.415     115.017
  C     -117.774      23.115     114.852
  C     -117.715      22.411     113.661
  C     -117.980      23.134     112.487
  N     -117.953      22.565     111.234
  N     -117.397      21.088     113.888
  C     -117.251      20.998     115.194
  N     -117.477      22.194     115.821
  O     -113.336      19.753     116.210
  O     -112.934      18.159     118.170
  H     -118.002      22.790     119.704
  H     -112.630      20.228     116.687
  H     -118.525      26.068     113.859
  H     -116.981      20.097     115.728
  H     -117.424      23.578     117.349
  H     -119.381      21.541     117.553
  H     -117.706      19.779     117.777
  H     -116.303      21.653     119.753
  H     -114.246      20.503     118.931
  H     -118.126      23.154     110.436
  H     -117.714      21.587     111.148
  H     -115.339      19.403     119.744
  P     -118.301      18.474     120.000
  C     -120.080      16.607     119.688
  O     -119.747      17.971     119.528
  O     -118.344      18.343     121.595
  O     -117.131      17.763     119.410
  H     -117.891      17.525     121.875
  H     -121.165      16.499     119.610
  H     -119.761      16.234     120.665
  H     -119.608      16.016     118.897
  H     -115.139      15.598     115.736
  H     -115.903      16.555     116.982
  H     -114.366      15.783     117.292

 3  4  5  6  7  8  9  10  11  12  22  25  29  30  31  32 0
 6-311+G(2d,p)
 ****
 33  36  37 0
 6-311+G(2d,p)
 ****
 1  2  13  14  15  16  17  18  19  20  21  23  24  26 0
 3-21G
 ****
 27  28  34  35  38  39  40  41  42  43  44  45  46  47  48 0
 3-21G
 ****


