%nproc=1
%NoSave
%Mem=1900MB
#P OB98/GEN NMR

erre ene a

0 1
  C     -893.100    -591.691    -652.951
  O     -892.690    -590.970    -651.813
  P     -893.630    -589.837    -651.180
  C     -894.570    -591.180    -649.207
  O     -894.860    -590.572    -650.458
  C     -895.230    -590.423    -648.053
  O     -894.740    -589.052    -648.044
  C     -896.760    -590.353    -648.119
  O     -897.230    -590.375    -646.765
  C     -897.030    -588.983    -648.717
  O     -898.330    -588.494    -648.452
  C     -895.890    -588.174    -648.065
  N     -894.840    -583.206    -647.576
  C     -895.170    -584.154    -646.664
  N     -895.460    -585.447    -646.881
  C     -895.390    -585.747    -648.184
  C     -895.100    -584.879    -649.234
  C     -894.800    -583.555    -648.895
  N     -894.450    -582.585    -649.805
  N     -895.190    -585.554    -650.438
  C     -895.510    -586.783    -650.126
  N     -895.590    -586.971    -648.780
  O     -894.010    -588.742    -652.114
  O     -892.770    -589.270    -649.945
  H     -898.980    -589.191    -648.686
  H     -892.410    -588.390    -650.166
  H     -895.180    -583.820    -645.629
  H     -895.720    -587.578    -650.831
  H     -896.140    -587.918    -647.021
  H     -896.890    -589.032    -649.809
  H     -897.220    -591.168    -648.697
  H     -894.910    -590.883    -647.116
  H     -893.490    -591.178    -649.077
  H     -894.120    -581.705    -649.429
  H     -894.150    -582.876    -650.739
  H     -894.910    -592.218    -649.223
  P     -898.670    -591.028    -646.425
  C     -897.720    -592.776    -644.801
  O     -898.390    -592.548    -646.048
  O     -899.720    -590.803    -647.454
  O     -899.060    -590.357    -645.019
  H     -900.000    -590.463    -644.868
  H     -896.640    -592.617    -644.939
  H     -897.900    -593.797    -644.488
  H     -898.090    -592.094    -644.024
  H     -892.341    -592.396    -653.219
  H     -893.260    -591.014    -653.764
  H     -894.010    -592.211    -652.735

 3  4  5  6  7  8  9  10  11  12  22  25  29  30  31  32 0
 6-311+G(2d,p)
 ****
 33  36  37 0
 6-311+G(2d,p)
 ****
 1  2  13  14  15  16  17  18  19  20  21  23  24  26 0
 3-21G
 ****
 27  28  34  35  38  39  40  41  42  43  44  45  46  47  48 0
 3-21G
 ****


