%nproc=1
%NoSave
%Mem=1900MB
#P OB98/GEN NMR

erre ene a

0 1
  C       -2.736     239.059     -34.557
  O       -2.114     240.094     -33.795
  P       -2.471     240.239     -32.239
  C       -4.464     241.870     -32.153
  O       -4.049     240.515     -32.096
  C       -5.768     242.076     -31.369
  O       -6.833     241.245     -31.919
  C       -5.627     241.702     -29.886
  O       -6.462     242.542     -29.075
  C       -6.194     240.296     -29.838
  O       -6.597     239.938     -28.519
  C       -7.330     240.414     -30.850
  N       -9.279     235.831     -29.655
  C       -9.041     236.930     -28.904
  N       -8.542     238.121     -29.295
  C       -8.295     238.122     -30.616
  C       -8.494     237.081     -31.509
  C       -9.006     235.884     -30.978
  N       -9.219     234.755     -31.737
  N       -8.118     237.448     -32.786
  C       -7.653     238.675     -32.654
  N       -7.770     239.137     -31.372
  O       -1.600     241.162     -31.456
  O       -2.338     238.733     -31.705
  H       -5.835     240.088     -27.928
  H       -1.893     238.741     -30.834
  H       -9.278     236.837     -27.848
  H       -7.213     239.262     -33.447
  H       -8.207     240.916     -30.421
  H       -5.436     239.578     -30.172
  H       -4.604     241.748     -29.501
  H       -6.088     243.118     -31.475
  H       -4.606     242.170     -33.194
  H       -9.476     233.910     -31.251
  H       -8.881     234.735     -32.690
  H       -3.662     242.508     -31.764
  P       -5.730     243.302     -27.858
  C       -6.066     241.457     -26.037
  O       -5.183     242.150     -26.891
  O       -6.574     244.356     -27.219
  O       -4.418     243.876     -28.572
  H       -3.916     243.223     -29.089
  H       -5.525     240.635     -25.562
  H       -6.905     241.040     -26.600
  H       -6.441     242.128     -25.258
  H       -2.389     239.103     -35.568
  H       -3.798     239.191     -34.538
  H       -2.487     238.107     -34.136

 3  4  5  6  7  8  9  10  11  12  22  25  29  30  31  32 0
 6-311+G(2d,p)
 ****
 33  36  37 0
 6-311+G(2d,p)
 ****
 1  2  13  14  15  16  17  18  19  20  21  23  24  26 0
 3-21G
 ****
 27  28  34  35  38  39  40  41  42  43  44  45  46  47  48 0
 3-21G
 ****


