%nproc=1
%NoSave
%Mem=1900MB
#P OB98/GEN NMR

erre ene a

0 1
  C      478.281    -320.458    -493.815
  O      478.850    -321.549    -493.107
  P      480.449    -321.694    -493.151
  C      480.798    -321.498    -490.569
  O      481.023    -320.924    -491.857
  C      480.722    -320.397    -489.510
  O      479.576    -319.554    -489.753
  C      480.559    -320.904    -488.078
  O      481.786    -321.406    -487.576
  C      480.063    -319.630    -487.397
  O      481.160    -318.743    -487.133
  C      479.138    -319.024    -488.470
  N      474.650    -317.352    -486.638
  C      475.886    -316.800    -486.659
  N      477.035    -317.310    -487.150
  C      476.825    -318.541    -487.660
  C      475.633    -319.245    -487.695
  C      474.502    -318.605    -487.158
  N      473.247    -319.189    -487.131
  N      475.809    -320.487    -488.272
  C      477.089    -320.520    -488.603
  N      477.739    -319.367    -488.262
  O      480.870    -320.740    -494.356
  O      480.950    -323.092    -493.338
  H      481.778    -318.809    -487.884
  H      481.655    -321.090    -494.829
  H      475.956    -315.806    -486.221
  H      477.580    -321.351    -489.087
  H      479.208    -317.927    -488.516
  H      479.555    -319.824    -486.438
  H      479.791    -321.671    -488.032
  H      481.628    -319.776    -489.598
  H      481.626    -322.171    -490.322
  H      472.530    -318.720    -486.594
  H      473.167    -320.157    -487.380
  H      479.868    -322.082    -490.592
  P      481.771    -322.886    -486.950
  C      484.216    -323.398    -487.580
  O      482.841    -323.688    -487.844
  O      480.372    -323.447    -487.487
  O      481.976    -322.946    -485.475
  H      480.259    -323.293    -488.444
  H      484.827    -324.048    -488.213
  H      484.451    -323.609    -486.531
  H      484.430    -322.361    -487.821
  H      477.217    -320.477    -493.705
  H      478.534    -320.535    -494.852
  H      478.663    -319.539    -493.422

 3  4  5  6  7  8  9  10  11  12  22  25  29  30  31  32 0
 6-311+G(2d,p)
 ****
 33  36  37 0
 6-311+G(2d,p)
 ****
 1  2  13  14  15  16  17  18  19  20  21  23  24  26 0
 3-21G
 ****
 27  28  34  35  38  39  40  41  42  43  44  45  46  47  48 0
 3-21G
 ****


