%nproc=1
%NoSave
%Mem=1900MB
#P OB98/GEN NMR

erre ene a

0 1
  C      -82.291     -21.501     169.446
  O      -81.910     -22.279     168.329
  H      -83.085     -22.029     169.982
  H      -82.680     -20.536     169.114
  H      -81.448     -21.354     170.124
  P      -80.662     -21.805     167.443
  C      -78.597     -22.318     168.904
  O      -79.419     -22.748     167.828
  C      -77.866     -23.506     169.536
  O      -78.850     -24.458     170.014
  C      -76.935     -24.242     168.566
  O      -75.768     -24.668     169.270
  C      -77.751     -25.449     168.143
  O      -76.929     -26.541     167.736
  C      -78.567     -25.733     169.403
  N      -81.580     -29.540     170.806
  C      -80.438     -29.043     171.400
  N      -80.022     -29.661     172.527
  N      -79.758     -28.029     170.931
  C      -80.300     -27.494     169.809
  C      -81.426     -27.894     169.126
  C      -82.155     -29.031     169.645
  O      -83.165     -29.526     169.154
  N      -81.642     -27.109     168.019
  C      -80.651     -26.237     168.035
  N      -79.803     -26.436     169.094
  O      -80.372     -20.338     167.496
  O      -81.029     -22.276     165.960
  H      -76.284     -26.698     168.460
  H      -81.300     -21.520     165.409
  H      -82.058     -30.329     171.203
  H      -80.497     -25.453     167.308
  H      -78.021     -26.351     170.125
  H      -78.403     -25.179     167.303
  H      -80.510     -30.431     172.958
  H      -76.646     -23.620     167.719
  H      -79.204     -29.296     173.001
  H      -77.314     -23.149     170.414
  H      -79.237     -21.839     169.653
  H      -77.874     -21.583     168.535
  P      -74.342     -24.062     168.853
  C      -73.885     -21.605     169.459
  O      -73.918     -22.946     169.929
  O      -74.218     -23.637     167.427
  O      -73.334     -25.267     169.182
  H      -72.611     -25.261     168.523
  H      -73.592     -20.955     170.257
  H      -74.857     -21.325     169.110
  H      -73.181     -21.525     168.657

 6  7  8  9  10  11  12  13  14  15  26  29  33  34 0
 6-311+G(2d,p)
 ****
 36  38  39  40  41 0
 6-311+G(2d,p)
 ****
 1  2  3  4  5  16  17  18  19  20  21  22  23  24  25 0
 3-21G
 ****
 27  28  30  31  32  35  37  42  43  44  45  46  47 0
 3-21G
 ****
 48  49 0
 3-21G
 ****


