%nproc=1
%NoSave
%Mem=1900MB
#P OB98/GEN NMR

erre ene a

0 1
  C     1501.898    -336.160     -47.003
  O     1501.174    -337.331     -46.660
  P     1500.489    -337.378     -45.193
  C     1500.350    -339.931     -45.585
  O     1500.686    -338.898     -44.692
  C     1501.111    -341.232     -45.230
  O     1502.504    -341.030     -45.472
  C     1500.990    -341.640     -43.765
  O     1499.780    -342.299     -43.489
  C     1502.202    -342.562     -43.637
  O     1501.843    -343.879     -44.102
  C     1503.233    -341.918     -44.557
  N     1507.308    -342.012     -41.547
  C     1506.569    -343.075     -42.043
  N     1506.990    -344.306     -41.774
  N     1505.499    -342.891     -42.837
  C     1505.223    -341.599     -43.070
  C     1505.887    -340.454     -42.614
  C     1507.053    -340.670     -41.728
  O     1507.689    -339.790     -41.186
  N     1505.310    -339.315     -43.090
  C     1504.337    -339.736     -43.862
  N     1504.230    -341.120     -43.858
  O     1498.932    -337.282     -45.506
  O     1500.944    -336.289     -44.265
  H     1501.047    -344.158     -43.585
  H     1498.466    -336.922     -44.747
  H     1508.125    -342.209     -40.973
  H     1503.698    -339.101     -44.448
  H     1503.742    -342.656     -45.166
  H     1502.514    -342.677     -42.603
  H     1507.856    -344.504     -41.309
  H     1501.146    -340.761     -43.105
  H     1506.497    -345.092     -42.170
  H     1500.758    -342.031     -45.878
  H     1500.624    -339.662     -46.604
  H     1499.281    -340.108     -45.543
  P     1498.574    -341.410     -42.898
  C     1497.501    -343.651     -42.156
  O     1497.876    -342.354     -41.809
  O     1497.524    -341.372     -44.105
  O     1498.988    -340.046     -42.457
  H     1496.962    -340.559     -44.051
  H     1498.209    -344.100     -42.833
  H     1496.499    -343.609     -42.637
  H     1497.438    -344.254     -41.235
  H     1502.294    -336.262     -47.992
  H     1502.701    -336.021     -46.309
  H     1501.245    -335.313     -46.967

 3  4  5  6  7  8  9  10  11  12  23  26  30  31  33  0
 6-311+G(2d,p)
 ****
 35  36  37  38 0
 6-311+G(2d,p)
 ****
 1  2  13  14  15  16  17  18  19  20  21  22  24  25  27  28  29 0
 3-21G
 ****
 32  34  39  40  41  42  43  44  45  46  47  48  49 0
 3-21G
 ****


