%nproc=1
%NoSave
%Mem=1900MB
#P OB98/GEN NMR

erre ene a

0 1
  C      242.270      54.622     216.708
  O      241.574      55.807     217.112
  P      242.266      57.216     216.791
  C      241.520      59.701     216.575
  O      241.159      58.368     216.916
  C      240.281      60.599     216.579
  O      239.456      60.352     215.424
  C      239.375      60.366     217.774
  O      239.900      60.992     218.927
  C      238.057      60.961     217.294
  O      237.952      62.356     217.625
  C      238.119      60.764     215.762
  N      237.133      59.812     215.277
  C      235.803      60.237     215.319
  O      235.519      61.350     215.773
  N      234.826      59.379     214.875
  C      235.151      58.198     214.452
  N      234.140      57.393     214.029
  C      236.541      57.703     214.416
  C      237.474      58.554     214.842
  O      242.544      57.139     215.215
  O      243.524      57.461     217.560
  H      238.827      62.742     217.422
  H      243.354      57.627     214.992
  H      236.762      56.706     214.063
  H      238.523      58.274     214.851
  H      237.948      61.717     215.249
  H      237.201      60.462     217.760
  H      239.252      59.288     217.946
  H      240.611      61.648     216.556
  H      233.199      57.763     214.068
  H      241.995      59.724     215.590
  H      234.278      56.452     213.686
  H      242.266      60.059     217.294
  P      240.334      60.058     220.153
  C      241.757      60.615     222.216
  O      240.764      61.073     221.320
  O      241.756      59.499     219.661
  O      239.405      58.957     220.538
  H      242.087      58.833     220.289
  H      242.103      61.461     222.817
  H      242.608      60.202     221.668
  H      241.337      59.858     222.883
  H      241.698      53.761     216.983
  H      243.224      54.586     217.192
  H      242.409      54.634     215.647

 3  4  5  6  7  8  9  10  11  12  13  21  23  27  28  29  30  32 0
 6-311+G(2d,p)
 ****
 34  35 0
 6-311+G(2d,p)
 ****
 1  2  14  15  16  17  18  19  20  22  24  25  26 0
 3-21G
 ****
 31  33  36  37  38  39  40  41  42  43  44  45  46 0
 3-21G
 ****


