%nproc=1
%NoSave
%Mem=1900MB
#P OB98/GEN NMR

erre ene a

0 1
  C     -215.551    -402.672     118.877
  O     -215.572    -402.198     120.232
  P     -214.264    -401.441     120.773
  C     -212.972    -403.354     121.985
  O     -213.764    -402.170     122.116
  C     -213.413    -404.432     122.976
  O     -213.136    -404.016     124.346
  C     -214.916    -404.751     122.914
  O     -215.109    -406.126     123.279
  C     -215.488    -403.879     124.011
  O     -216.784    -404.322     124.415
  C     -214.394    -404.001     125.068
  N     -216.127    -402.549     129.571
  C     -216.335    -403.723     128.882
  N     -217.078    -404.670     129.490
  N     -215.842    -403.966     127.681
  C     -215.078    -402.935     127.219
  C     -214.810    -401.729     127.802
  C     -215.384    -401.465     129.120
  O     -215.243    -400.443     129.772
  N     -214.026    -400.937     127.005
  C     -213.818    -401.683     125.928
  N     -214.410    -402.914     126.019
  O     -214.844    -400.046     121.302
  O     -213.210    -401.227     119.726
  H     -217.007    -403.863     125.260
  H     -214.584    -399.333     120.704
  H     -216.537    -402.419     130.494
  H     -213.257    -401.368     125.051
  H     -214.468    -404.940     125.645
  H     -215.580    -402.840     123.656
  H     -217.442    -404.579     130.431
  H     -215.380    -404.576     121.940
  H     -217.208    -405.558     129.023
  H     -212.836    -405.344     122.778
  H     -211.918    -403.113     122.154
  H     -213.043    -403.708     120.949
  P     -215.674    -407.109     122.140
  C     -218.238    -406.655     122.160
  O     -217.175    -407.488     122.574
  O     -214.860    -408.468     122.368
  O     -215.520    -406.590     120.747
  H     -214.825    -408.982     121.537
  H     -218.761    -407.148     121.336
  H     -217.884    -405.669     121.813
  H     -218.930    -406.523     122.993
  H     -216.480    -403.153     118.653
  H     -214.750    -403.371     118.756
  H     -215.407    -401.846     118.212

 3  4  5  6  7  8  9  10  11  12  23  26  30  31 0
 6-311+G(2d,p)
 ****
 33  35  36  37  38 0
 6-311+G(2d,p)
 ****
 1  2  13  14  15  16  17  18  19  20  21  22  24  25 0
 3-21G
 ****
 27  28  29  32  34  39  40  41  42  43  44  45  46  47  48  49 0
 3-21G
 ****


