%nproc=1
%NoSave
%Mem=1900MB
#P OB98/GEN NMR

erre ene a

0 1
  C       94.446     172.579     370.919
  O       95.307     172.612     369.798
  H       94.715     171.718     371.539
  H       93.407     172.470     370.598
  H       94.563     173.490     371.510
  P       95.045     173.773     368.720
  C       94.007     172.043     367.078
  O       93.843     173.268     367.783
  C       93.172     172.072     365.802
  O       91.763     172.073     366.136
  C       93.390     173.313     364.945
  O       94.581     173.238     364.185
  C       92.136     173.289     364.084
  O       92.291     172.419     362.951
  C       91.069     172.737     365.060
  N       90.180     173.787     365.549
  C       88.899     173.369     365.915
  O       88.523     172.200     365.832
  N       88.050     174.357     366.342
  C       88.337     175.691     366.399
  O       87.504     176.529     366.719
  C       89.707     176.066     366.016
  C       90.550     175.115     365.607
  O       96.331     173.681     367.771
  O       94.861     175.138     369.293
  H       96.956     174.400     367.987
  H       92.988     172.819     362.394
  H       87.117     174.077     366.599
  H       89.968     177.119     366.056
  H       91.560     175.373     365.297
  H       90.456     171.977     364.561
  H       91.899     174.280     363.693
  H       93.372     174.214     365.571
  H       93.386     171.162     365.224
  H       93.671     171.210     367.706
  H       95.070     171.905     366.846
  P       95.418     174.585     363.934
  C       94.503     174.993     361.505
  O       94.600     175.434     362.847
  O       96.677     174.024     363.129
  O       95.752     175.323     365.188
  H       96.450     173.290     362.529
  H       93.921     175.691     360.941
  H       94.032     174.032     361.478
  H       95.483     174.922     361.081

 6  7  8  9  10  11  12  13  14  15  16  27  31  32  33  34  35 0
 6-311+G(2d,p)
 ****
 36  37 0
 6-311+G(2d,p)
 ****
 1  2  3  4  5  17  18  19  20  21  22  23  24  25 0
 3-21G
 ****
 26  28  29  30  38  39  40  41  42  43  44  45 0
 3-21G
 ****


