%nproc=1
%NoSave
%Mem=1900MB
#P OB98/GEN NMR

erre ene a

0 1
  C     -595.419     297.771     514.650
  O     -594.236     297.502     515.396
  P     -593.421     298.761     515.976
  C     -594.129     298.158     518.428
  O     -593.078     298.391     517.497
  C     -593.579     297.527     519.710
  O     -592.764     296.366     519.394
  C     -592.665     298.449     520.509
  O     -593.409     299.442     521.195
  C     -591.957     297.445     521.397
  O     -592.787     297.080     522.517
  C     -591.794     296.235     520.456
  N     -590.442     296.086     519.920
  C     -589.423     295.962     520.879
  O     -589.635     295.984     522.090
  N     -588.158     295.822     520.382
  C     -587.810     295.823     519.066
  O     -586.656     295.678     518.677
  C     -588.913     296.015     518.108
  C     -590.162     296.134     518.572
  O     -594.585     299.852     516.089
  O     -592.260     299.149     515.125
  H     -595.450     299.471     516.333
  H     -593.559     296.619     522.149
  H     -587.411     295.708     521.054
  H     -588.670     296.048     517.055
  H     -590.997     296.286     517.888
  H     -592.054     295.310     520.986
  H     -591.008     297.837     521.800
  H     -591.941     298.935     519.849
  H     -594.420     297.204     520.320
  H     -594.878     297.487     517.994
  H     -594.629     299.105     518.639
  P     -593.220     300.963     520.701
  C     -595.743     301.554     521.117
  O     -594.386     301.815     521.413
  O     -593.702     300.846     519.180
  O     -591.841     301.482     520.886
  H     -594.510     300.328     519.063
  H     -596.362     301.965     521.920
  H     -595.932     300.482     521.042
  H     -596.017     302.046     520.173
  H     -595.855     296.848     514.328
  H     -595.174     298.367     513.796
  H     -596.116     298.300     515.266

 3  4  5  6  7  8  9  10  11  12  13  24  28  29  30  31  32 0
 6-311+G(2d,p)
 ****
 33  34 0
 6-311+G(2d,p)
 ****
 1  2  14  15  16  17  18  19  20  21  22  23  25  26  27 0
 3-21G
 ****
 35  36  37  38  39  40  41  42  43  44  45 0
 3-21G
 ****


