%nproc=1
%NoSave
%Mem=1900MB
#P OB98/GEN NMR

erre ene a

0 1
  C      681.481    1370.031     217.418
  O      680.299    1370.378     216.691
  P      679.139    1369.264     216.620
  C      677.204    1370.930     217.221
  O      677.982    1369.807     217.592
  C      675.754    1370.511     216.974
  O      675.580    1370.076     215.603
  C      675.281    1369.370     217.846
  O      675.033    1369.799     219.177
  C      674.036    1368.919     217.069
  O      672.921    1369.777     217.380
  C      674.471    1369.135     215.607
  N      674.823    1367.891     214.938
  C      673.768    1367.156     214.378
  O      672.597    1367.536     214.458
  N      674.106    1366.008     213.758
  C      675.372    1365.484     213.640
  O      675.604    1364.446     213.051
  C      676.431    1366.260     214.283
  C      676.120    1367.417     214.891
  O      679.804    1368.057     217.423
  O      678.723    1368.945     215.220
  H      680.364    1368.355     218.157
  H      672.781    1369.709     218.344
  H      673.346    1365.484     213.311
  H      677.439    1365.868     214.252
  H      676.895    1367.993     215.389
  H      673.675    1369.615     215.037
  H      673.735    1367.902     217.313
  H      676.022    1368.570     217.828
  H      675.117    1371.395     217.121
  H      677.612    1371.392     216.316
  H      677.270    1371.677     218.025
  P      675.197    1368.691     220.336
  C      677.377    1369.755     221.326
  O      676.757    1368.659     220.696
  O      674.964    1367.344     219.511
  O      674.288    1368.899     221.496
  H      675.421    1367.333     218.648
  H      678.317    1369.426     221.782
  H      676.731    1370.178     222.108
  H      677.612    1370.541     220.571
  H      682.170    1370.849     217.391
  H      681.933    1369.169     216.973
  H      681.224    1369.815     218.434

 3  4  5  6  7  8  9  10  11  12  13  24  28  29  30  31  32 0
 6-311+G(2d,p)
 ****
 33  34 0
 6-311+G(2d,p)
 ****
 1  2  14  15  16  17  18  19  20  21  22  23  25  26  27 0
 3-21G
 ****
 35  36  37  38  39  40  41  42  43  44  45 0
 3-21G
 ****


