%nproc=1
%NoSave
%Mem=1900MB
#P OB98/GEN NMR

erre ene a

0 1
  C       61.721     146.538      76.207
  O       61.509     147.890      75.778
  P       60.650     148.856      76.725
  C       58.414     147.823      75.885
  O       59.226     148.172      76.998
  C       56.986     147.509      76.342
  O       56.441     148.563      77.160
  C       56.001     147.336      75.195
  O       56.070     146.032      74.640
  C       54.675     147.532      75.913
  O       54.306     146.320      76.599
  C       55.015     148.632      76.928
  N       51.185     151.890      75.942
  C       51.192     150.601      76.352
  N       52.251     149.795      76.575
  C       53.400     150.448      76.347
  C       53.550     151.762      75.927
  C       52.374     152.497      75.723
  N       52.376     153.810      75.308
  N       54.887     152.081      75.793
  C       55.532     150.983      76.139
  N       54.675     149.970      76.474
  O       60.289     150.082      75.760
  O       61.382     149.317      77.943
  H       53.397     146.446      76.931
  H       60.270     150.912      76.274
  H       50.215     150.158      76.523
  H       56.609     150.880      76.165
  H       54.514     148.479      77.892
  H       53.857     147.772      75.229
  H       56.139     148.119      74.438
  H       57.017     146.588      76.942
  H       58.841     146.961      75.367
  H       51.492     154.283      75.207
  H       53.259     154.276      75.164
  H       58.422     148.648      75.166
  P       56.663     145.898      73.154
  C       54.874     144.287      72.175
  O       55.404     145.598      72.211
  O       57.452     144.506      73.206
  O       57.545     147.028      72.739
  H       58.209     144.528      72.588
  H       53.871     144.326      71.745
  H       54.806     143.861      73.180
  H       55.506     143.654      71.547
  H       62.307     146.020      75.477
  H       60.777     146.047      76.320
  H       62.237     146.538      77.144

 3  4  5  6  7  8  9  10  11  12  22  25  29  30  31  32 0
 6-311+G(2d,p)
 ****
 33  36  37 0
 6-311+G(2d,p)
 ****
 1  2  13  14  15  16  17  18  19  20  21  23  24  26 0
 3-21G
 ****
 27  28  34  35  38  39  40  41  42  43  44  45  46  47  48 0
 3-21G
 ****


