%nproc=1
%NoSave
%Mem=1900MB
#P OB98/GEN NMR

erre ene a

0 1
  C      -81.823    -378.988     213.445
  O      -82.756    -377.967     213.135
  P      -84.100    -378.389     212.373
  C      -84.214    -376.090     211.151
  O      -84.867    -377.040     211.980
  C      -85.158    -374.924     210.853
  O      -86.247    -375.364     210.010
  C      -85.816    -374.337     212.093
  O      -84.929    -373.476     212.791
  C      -87.020    -373.624     211.498
  O      -86.653    -372.322     211.008
  C      -87.400    -374.559     210.331
  N      -88.567    -375.379     210.630
  C      -89.802    -374.818     210.308
  O      -89.920    -373.690     209.824
  N      -90.899    -375.579     210.600
  C      -90.890    -376.796     211.219
  O      -91.915    -377.407     211.506
  C      -89.561    -377.329     211.562
  C      -88.480    -376.601     211.264
  O      -85.012    -379.023     213.529
  O      -83.899    -379.341     211.241
  H      -86.008    -372.466     210.291
  H      -85.537    -379.763     213.170
  H      -91.799    -375.205     210.352
  H      -89.515    -378.289     212.055
  H      -87.492    -376.969     211.520
  H      -87.615    -373.969     209.432
  H      -87.815    -373.476     212.233
  H      -86.166    -375.147     212.750
  H      -84.597    -374.152     210.311
  H      -83.912    -376.571     210.215
  H      -83.312    -375.733     211.660
  P      -84.556    -373.876     214.297
  C      -85.256    -371.635     215.444
  O      -84.215    -372.492     215.028
  O      -83.141    -374.595     214.075
  O      -85.591    -374.736     214.949
  H      -82.647    -374.203     213.336
  H      -86.129    -372.200     215.787
  H      -85.548    -370.991     214.610
  H      -84.894    -371.014     216.264
  H      -80.981    -378.561     213.949
  H      -81.496    -379.459     212.541
  H      -82.287    -379.715     214.078

 3  4  5  6  7  8  9  10  11  12  13  23  28  29  30  31  32 0
 6-311+G(2d,p)
 ****
 33  34 0
 6-311+G(2d,p)
 ****
 1  2  14  15  16  17  18  19  20  21  22  24  25  26 0
 3-21G
 ****
 27  35  36  37  38  39  40  41  42  43  44  45 0
 3-21G
 ****


