%nproc=1
%NoSave
%Mem=1900MB
#P OB98/GEN NMR

erre ene a

0 1
  C       47.818     132.027     -99.713
  O       47.224     130.915    -100.353
  H       47.914     132.839    -100.440
  H       48.816     131.772     -99.344
  H       47.191     132.370     -98.886
  P       47.046     129.560     -99.520
  C       45.589     128.933     -97.475
  O       46.301     129.960     -98.159
  C       45.832     129.023     -95.969
  O       47.127     128.483     -95.638
  C       45.822     130.445     -95.420
  O       44.501     130.939     -95.337
  C       46.528     130.234     -94.091
  O       45.635     129.672     -93.116
  C       47.619     129.210     -94.487
  N       48.915     129.819     -94.774
  C       49.629     130.292     -93.668
  O       49.156     130.198     -92.535
  N       50.854     130.877     -93.884
  C       51.343     130.943     -95.081
  N       52.561     131.528     -95.226
  C       50.635     130.424     -96.268
  C       49.436     129.891     -96.047
  O       48.282     128.735     -99.329
  O       45.920     128.756    -100.325
  H       44.901     130.312     -93.019
  H       46.329     128.139    -100.960
  H       51.085     130.491     -97.250
  H       48.850     129.486     -96.866
  H       47.760     128.473     -93.685
  H       46.911     131.165     -93.673
  H       46.447     131.096     -96.042
  H       45.077     128.403     -95.468
  H       53.016     131.851     -94.378
  H       45.957     127.976     -97.859
  H       53.103     131.489     -96.077
  H       44.515     129.000     -97.687
  P       44.162     132.483     -95.603
  C       44.423     134.057     -97.619
  O       44.831     132.837     -97.021
  O       44.517     133.412     -94.491
  O       42.600     132.471     -95.949
  H       42.064     132.376     -95.124
  H       44.931     134.184     -98.552
  H       44.663     134.871     -96.968
  H       43.367     134.036     -97.788

 6  7  8  9  10  11  12  13  14  15  16  26  30  31  32  33  35 0
 6-311+G(2d,p)
 ****
 37  38 0
 6-311+G(2d,p)
 ****
 1  2  3  4  5  17  18  19  20  21  22  23  24  25 0
 3-21G
 ****
 27  28  29  34  36  39  40  41  42  43  44  45  46 0
 3-21G
 ****


