%nproc=1
%NoSave
%Mem=1900MB
#P OB98/GEN NMR

erre ene a

0 1
  C      500.258     112.047    -158.240
  O      499.475     113.205    -158.454
  H      500.200     111.777    -157.183
  H      501.303     112.227    -158.500
  H      499.866     111.217    -158.834
  P      499.616     113.962    -159.863
  C      498.359     111.917    -160.803
  O      499.446     112.818    -160.982
  C      497.945     111.282    -162.129
  O      497.323     112.255    -162.993
  C      499.104     110.726    -162.941
  O      499.754     109.616    -162.365
  C      498.480     110.590    -164.323
  O      497.729     109.386    -164.465
  C      497.531     111.815    -164.351
  N      498.040     112.889    -165.196
  C      497.805     112.757    -166.559
  O      497.228     111.797    -167.059
  N      498.289     113.767    -167.345
  C      499.012     114.839    -166.917
  O      499.439     115.702    -167.677
  C      499.263     114.905    -165.468
  C      498.773     113.943    -164.684
  O      500.853     114.796    -160.030
  O      498.257     114.795    -159.989
  H      498.375     108.662    -164.587
  H      498.328     115.490    -160.689
  H      498.118     113.699    -168.339
  H      499.843     115.737    -165.094
  H      498.943     113.969    -163.611
  H      496.546     111.520    -164.736
  H      499.232     110.599    -165.116
  H      499.869     111.509    -163.025
  H      497.201     110.505    -161.916
  H      497.515     112.487    -160.399
  H      498.640     111.142    -160.083
  P      501.069     108.949    -162.966
  C      502.994     109.611    -161.325
  O      502.331     109.850    -162.561
  O      500.983     108.448    -164.371
  O      501.250     107.666    -162.001
  H      501.627     106.948    -162.547
  H      503.807     110.298    -161.218
  H      503.370     108.609    -161.310
  H      502.304     109.746    -160.518

 6  7  8  9  10  11  12  13  14  15  16  26  31  32  33  34  35 0
 6-311+G(2d,p)
 ****
 36  37 0
 6-311+G(2d,p)
 ****
 1  2  3  4  5  17  18  19  20  21  22  23  24  25 0
 3-21G
 ****
 27  28  29  30  38  39  40  41  42  43  44  45 0
 3-21G
 ****


