%nproc=1
%NoSave
%Mem=1900MB
#P OB98/GEN NMR

erre ene a

0 1
  C      817.502     635.274     227.188
  O      816.547     634.491     226.490
  H      818.498     634.964     226.877
  H      817.411     635.107     228.266
  H      817.363     636.322     226.956
  P      815.010     634.715     226.896
  C      814.860     632.181     226.241
  O      814.463     633.212     227.139
  C      814.327     630.837     226.716
  O      814.901     630.490     227.998
  C      812.818     630.791     226.928
  O      812.077     630.689     225.727
  C      812.710     629.537     227.791
  O      812.882     628.375     226.954
  C      813.912     629.737     228.746
  N      813.558     630.438     229.978
  C      813.203     629.640     231.079
  O      813.187     628.420     230.988
  N      812.813     630.261     232.248
  C      812.817     631.564     232.331
  N      812.427     632.121     233.507
  C      813.190     632.446     231.202
  C      813.540     631.811     230.069
  O      814.309     635.123     225.515
  O      814.764     635.651     228.024
  H      812.774     627.592     227.535
  H      813.323     635.140     225.625
  H      813.155     633.520     231.303
  H      813.840     632.395     229.193
  H      814.356     628.770     229.019
  H      811.746     629.435     228.285
  H      812.480     631.655     227.524
  H      814.647     630.075     225.985
  H      812.110     631.489     234.245
  H      815.948     632.166     226.202
  H      812.253     633.111     233.624
  H      814.472     632.401     225.242
  P      811.539     632.047     225.072
  C      810.123     630.620     223.386
  O      810.154     631.689     224.330
  O      812.555     632.277     223.829
  O      811.500     633.239     225.979
  H      812.716     633.231     223.680
  H      809.133     630.520     222.992
  H      810.408     629.709     223.869
  H      810.805     630.829     222.588

 6  7  8  9  10  11  12  13  14  15  16  26  30  31  32  33  35 0
 6-311+G(2d,p)
 ****
 37  38 0
 6-311+G(2d,p)
 ****
 1  2  3  4  5  17  18  19  20  21  22  23  24  25 0
 3-21G
 ****
 27  28  29  34  36  39  40  41  42  43  44  45  46 0
 3-21G
 ****


