%nproc=1
%NoSave
%Mem=1900MB
#P OB98/GEN NMR

erre ene a

0 1
  C      149.299      96.344     755.454
  O      148.092      95.706     755.093
  H      150.131      95.670     755.254
  H      149.291      96.593     756.520
  H      149.442      97.258     754.857
  P      146.736      96.540     755.331
  C      146.300      95.153     757.484
  O      146.435      96.446     756.911
  C      145.356      95.206     758.692
  O      145.913      96.020     759.740
  C      143.973      95.770     758.384
  O      143.117      94.773     757.821
  C      143.518      96.223     759.768
  O      143.018      95.113     760.539
  C      144.832      96.758     760.363
  N      143.269     101.348     761.787
  C      142.884     100.099     762.243
  N      141.895     100.068     763.165
  N      143.409      98.984     761.806
  C      144.358      99.167     760.860
  C      144.832     100.356     760.343
  C      144.269     101.590     760.849
  O      144.611     102.728     760.548
  N      145.811     100.134     759.401
  C      145.898      98.820     759.325
  N      145.022      98.188     760.170
  O      145.609      95.608     754.687
  O      146.721      97.912     754.750
  H      142.163      94.835     760.182
  H      144.884      96.170     754.344
  H      142.844     102.167     762.173
  H      146.578      98.278     758.673
  H      144.888      96.574     761.445
  H      142.721      96.959     759.708
  H      141.255     100.837     763.278
  H      144.054      96.646     757.712
  H      141.596      99.156     763.481
  H      145.274      94.170     759.080
  H      147.287      94.805     757.815
  H      145.908      94.461     756.729
  P      142.049      95.245     756.731
  C      140.047      94.999     758.368
  O      140.808      95.864     757.551
  O      141.463      93.868     756.158
  O      142.600      96.111     755.640
  H      141.006      94.020     755.306
  H      139.265      95.554     758.843
  H      140.680      94.564     759.113
  H      139.620      94.224     757.766

 6  7  8  9  10  11  12  13  14  15  26  29  33  34 0
 6-311+G(2d,p)
 ****
 36  38  39  40  41 0
 6-311+G(2d,p)
 ****
 1  2  3  4  5  16  17  18  19  20  21  22  23  24  25 0
 3-21G
 ****
 27  28  30  31  32  35  37  42  43  44  45  46  47 0
 3-21G
 ****
 48  49 0
 3-21G
 ****


