%nproc=1
%NoSave
%Mem=1900MB
#P OB98/GEN NMR

erre ene a

0 1
  C      287.470    -228.206    -282.217
  O      287.516    -227.681    -280.883
  P      287.517    -228.718    -279.665
  C      289.140    -227.024    -278.544
  O      288.096    -227.971    -278.373
  C      289.699    -226.594    -277.185
  O      288.659    -226.077    -276.321
  C      290.359    -227.725    -276.411
  O      291.700    -227.936    -276.828
  C      290.343    -227.159    -274.999
  O      291.428    -226.228    -274.829
  C      288.994    -226.433    -274.956
  N      286.526    -227.596    -270.694
  C      287.563    -226.710    -270.911
  N      288.005    -226.025    -269.828
  N      288.120    -226.508    -272.078
  C      287.565    -227.247    -273.063
  C      286.538    -228.158    -272.978
  C      285.945    -228.382    -271.682
  O      285.031    -229.165    -271.429
  N      286.261    -228.713    -274.200
  C      287.100    -228.128    -275.027
  N      287.928    -227.239    -274.387
  O      288.707    -229.724    -280.054
  O      286.225    -229.442    -279.473
  H      291.369    -225.894    -273.915
  H      288.540    -230.600    -279.665
  H      286.139    -227.712    -269.777
  H      287.152    -228.309    -276.095
  H      289.039    -225.504    -274.373
  H      290.474    -227.939    -274.236
  H      287.588    -226.094    -268.912
  H      289.764    -228.645    -276.462
  H      288.741    -225.347    -269.974
  H      290.436    -225.794    -277.357
  H      288.776    -226.150    -279.091
  H      289.920    -227.465    -279.174
  P      292.009    -229.217    -277.740
  C      293.371    -228.509    -279.833
  O      293.393    -228.912    -278.481
  O      290.910    -229.094    -278.901
  O      291.919    -230.527    -277.032
  H      290.655    -229.984    -279.213
  H      294.379    -228.193    -280.121
  H      292.683    -227.671    -279.980
  H      293.074    -229.348    -280.471
  H      287.475    -227.398    -282.919
  H      286.577    -228.782    -282.343
  H      288.323    -228.829    -282.385

 3  4  5  6  7  8  9  10  11  12  23  26  30  31 0
 6-311+G(2d,p)
 ****
 33  35  36  37  38 0
 6-311+G(2d,p)
 ****
 1  2  13  14  15  16  17  18  19  20  21  22  24  25 0
 3-21G
 ****
 27  28  29  32  34  39  40  41  42  43  44  45  46  47  48  49 0
 3-21G
 ****


