%nproc=1
%NoSave
%Mem=1900MB
#P OB98/GEN NMR

erre ene a

0 1
  C      162.119      65.195     101.246
  O      161.421      64.074     101.752
  H      161.452      66.060     101.260
  H      162.435      65.009     100.216
  H      162.992      65.411     101.869
  P      162.238      62.696     101.835
  C      161.042      61.625     103.880
  O      162.216      62.249     103.375
  C      160.926      61.886     105.380
  O      160.901      63.312     105.626
  C      159.646      61.344     106.002
  O      159.707      59.949     106.235
  C      159.568      62.170     107.275
  O      160.380      61.610     108.314
  C      160.132      63.525     106.832
  N      158.739      68.386     107.536
  C      159.885      67.725     107.815
  N      160.182      66.429     107.584
  C      159.157      65.811     106.974
  C      157.931      66.353     106.624
  C      157.736      67.712     106.929
  N      156.563      68.378     106.668
  N      157.121      65.394     106.052
  C      157.844      64.293     106.046
  N      159.083      64.498     106.590
  O      163.751      63.159     101.594
  O      161.816      61.649     100.861
  H      160.029      60.715     108.484
  H      164.003      62.983     100.668
  H      160.661      68.314     108.297
  H      157.518      63.332     105.671
  H      160.809      63.957     107.578
  H      158.544      62.220     107.645
  H      158.785      61.592     105.368
  H      161.810      61.470     105.878
  H      161.102      60.545     103.706
  H      160.172      62.024     103.349
  H      156.469      69.331     106.976
  H      155.769      67.855     106.321
  P      158.914      58.989     105.226
  C      161.005      57.443     105.031
  O      160.008      58.203     104.360
  O      158.250      60.000     104.176
  O      157.894      58.116     105.875
  H      157.376      59.665     103.901
  H      161.650      56.986     104.310
  H      160.537      56.684     105.623
  H      161.578      58.087     105.665

 6  7  8  9  10  11  12  13  14  15  25  28  32  33  34  35 0
 6-311+G(2d,p)
 ****
 36  37  40 0
 6-311+G(2d,p)
 ****
 1  2  3  4  5  16  17  18  19  20  21  22  23  24 0
 3-21G
 ****
 26  27  29  30  31  38  39 41  42  43  44  45  46  47  48 0
 3-21G
 ****


