%nproc=1
%NoSave
%Mem=1900MB
#P OB98/GEN NMR

erre ene a

0 1
  C      618.912     351.637     883.577
  O      617.738     352.077     882.877
  P      616.989     353.470     883.207
  C      614.895     352.335     884.204
  O      615.410     353.219     883.212
  C      613.364     352.306     884.206
  O      612.838     353.593     884.619
  C      612.728     352.024     882.863
  O      612.828     350.644     882.523
  C      611.311     352.538     883.091
  O      610.513     351.542     883.760
  C      611.551     353.757     884.002
  N      611.470     355.010     883.269
  C      610.215     355.328     882.733
  O      609.271     354.544     882.834
  N      610.073     356.537     882.062
  C      611.111     357.304     881.887
  N      610.902     358.465     881.239
  C      612.460     356.952     882.367
  C      612.560     355.817     883.045
  O      617.438     354.609     882.336
  O      617.331     353.770     884.742
  H      610.322     350.839     883.108
  H      617.367     354.736     884.870
  H      613.311     357.613     882.175
  H      613.528     355.482     883.433
  H      610.813     353.773     884.813
  H      610.784     352.778     882.160
  H      613.211     352.629     882.084
  H      613.053     351.558     884.953
  H      609.965     358.687     880.925
  H      615.260     352.668     885.189
  H      611.643     359.139     881.053
  H      615.297     351.337     884.011
  P      614.124     350.112     881.757
  C      613.563     351.848     879.937
  O      613.969     350.512     880.203
  O      614.494     348.689     882.000
  O      615.290     351.107     882.248
  H      616.143     350.618     882.251
  H      613.857     352.085     878.903
  H      614.004     352.546     880.627
  H      612.458     351.898     880.011
  H      619.227     350.692     883.187
  H      618.689     351.537     884.619
  H      619.695     352.355     883.447

 3  4  5  6  7  8  9  10  11  12  13  23  27  28  29  30  32 0
 6-311+G(2d,p)
 ****
 34  35 0
 6-311+G(2d,p)
 ****
 1  2  14  15  16  17  18  19  20  21  22  24  25  26 0
 3-21G
 ****
 31  33  36  37  38  39  40  41  42  43  44  45  46 0
 3-21G
 ****


