%nproc=1
%NoSave
%Mem=1900MB
#P OB98/GEN NMR

erre ene a

0 1
  C      374.751    -239.377     -58.548
  O      374.417    -239.841     -59.842
  H      374.053    -238.580     -58.273
  H      375.767    -238.974     -58.527
  H      374.656    -240.188     -57.824
  P      375.455    -240.815     -60.586
  C      377.613    -240.339     -61.916
  O      376.766    -239.917     -60.854
  C      378.438    -239.175     -62.467
  O      377.586    -238.209     -63.119
  C      379.177    -238.382     -61.401
  O      380.213    -239.086     -60.751
  C      379.508    -237.094     -62.145
  O      380.677    -237.214     -62.951
  C      378.258    -236.931     -63.041
  N      377.362    -235.882     -62.563
  C      377.588    -234.611     -63.075
  O      378.494    -234.342     -63.867
  N      376.755    -233.628     -62.620
  C      375.768    -233.784     -61.689
  O      375.060    -232.856     -61.306
  C      375.599    -235.147     -61.155
  C      376.392    -236.122     -61.612
  O      374.932    -241.506     -61.810
  O      375.936    -241.817     -59.434
  H      381.393    -237.525     -62.368
  H      376.384    -242.610     -59.815
  H      376.889    -232.697     -62.989
  H      374.835    -235.302     -60.406
  H      376.286    -237.133     -61.233
  H      378.556    -236.677     -64.068
  H      379.669    -236.255     -61.463
  H      378.463    -238.111     -60.615
  H      379.128    -239.573     -63.218
  H      376.977    -240.740     -62.716
  H      378.277    -241.138     -61.561
  P      380.589    -238.890     -59.216
  C      382.450    -237.646     -57.866
  O      381.982    -238.100     -59.129
  O      380.398    -240.074     -58.323
  O      379.530    -237.757     -58.762
  H      379.294    -237.943     -57.828
  H      383.386    -237.143     -57.992
  H      382.580    -238.483     -57.212
  H      381.736    -236.970     -57.443

 6  7  8  9  10  11  12  13  14  15  16  26  31  32  33  34  35 0
 6-311+G(2d,p)
 ****
 36  37 0
 6-311+G(2d,p)
 ****
 1  2  3  4  5  17  18  19  20  21  22  23  24  25 0
 3-21G
 ****
 27  28  29  30  38  39  40  41  42  43  44  45 0
 3-21G
 ****


