%nproc=1
%NoSave
%Mem=1900MB
#P OB98/GEN NMR

erre ene a

0 1
  C     -134.356     193.793    -119.423
  O     -133.749     192.650    -118.797
  P     -132.316     192.815    -118.087
  C     -132.425     191.359    -115.916
  O     -132.505     192.650    -116.503
  C     -133.737     191.022    -115.204
  O     -134.844     191.064    -116.133
  C     -133.782     189.628    -114.597
  O     -133.046     189.552    -113.388
  C     -135.281     189.430    -114.407
  O     -135.732     190.050    -113.191
  C     -135.856     190.160    -115.636
  N     -136.308     189.242    -116.677
  C     -137.622     188.797    -116.581
  O     -138.369     189.095    -115.650
  N     -138.044     187.963    -117.580
  C     -137.277     187.485    -118.605
  O     -137.707     186.724    -119.460
  C     -135.874     187.926    -118.607
  C     -135.461     188.765    -117.656
  O     -132.056     194.392    -118.226
  O     -131.197     192.039    -118.699
  H     -135.165     189.704    -112.474
  H     -131.096     194.563    -118.250
  H     -139.002     187.653    -117.547
  H     -135.226     187.552    -119.389
  H     -134.428     189.100    -117.644
  H     -136.701     190.792    -115.338
  H     -135.559     188.373    -114.350
  H     -133.413     188.893    -115.321
  H     -133.913     191.784    -114.433
  H     -131.609     191.344    -115.189
  H     -132.212     190.624    -116.699
  P     -131.459     189.772    -113.495
  C     -131.448     192.203    -112.534
  O     -131.263     191.355    -113.646
  O     -131.167     189.175    -114.952
  O     -130.701     189.115    -112.390
  H     -131.907     189.327    -115.565
  H     -131.151     191.716    -111.602
  H     -132.501     192.493    -112.473
  H     -130.840     193.101    -112.671
  H     -135.299     193.511    -119.843
  H     -133.715     194.158    -120.198
  H     -134.507     194.561    -118.694

 3  4  5  6  7  8  9  10  11  12  13  23  28  29  30  31  32 0
 6-311+G(2d,p)
 ****
 33  34 0
 6-311+G(2d,p)
 ****
 1  2  14  15  16  17  18  19  20  21  22  24  25  26 0
 3-21G
 ****
 27  35  36  37  38  39  40  41  42  43  44  45 0
 3-21G
 ****


