%nproc=1
%NoSave
%Mem=1900MB
#P OB98/GEN NMR

erre ene a

0 1
  C      -38.322     -34.888    -176.206
  O      -39.625     -34.370    -176.417
  P      -40.311     -33.545    -175.226
  C      -41.241     -35.774    -174.270
  O      -40.561     -34.555    -174.000
  C      -41.491     -36.553    -172.976
  O      -40.221     -36.985    -172.417
  C      -42.207     -35.737    -171.895
  O      -43.060     -36.606    -171.133
  C      -41.083     -35.289    -170.985
  O      -41.559     -34.990    -169.673
  C      -40.156     -36.503    -171.058
  N      -36.658     -36.879    -167.427
  C      -37.854     -37.557    -167.570
  N      -38.197     -38.385    -166.558
  N      -38.635     -37.441    -168.610
  C      -38.163     -36.573    -169.538
  C      -36.990     -35.853    -169.518
  C      -36.141     -35.982    -168.354
  O      -35.084     -35.389    -168.154
  N      -36.838     -35.105    -170.657
  C      -37.939     -35.334    -171.350
  N      -38.789     -36.190    -170.696
  O      -41.785     -33.264    -175.789
  O      -39.622     -32.270    -174.872
  H      -40.797     -34.653    -169.164
  H      -41.862     -32.329    -176.062
  H      -36.096     -36.994    -166.600
  H      -38.178     -34.891    -172.308
  H      -40.501     -37.313    -170.405
  H      -40.603     -34.391    -171.388
  H      -37.672     -38.468    -165.700
  H      -42.797     -34.896    -172.279
  H      -39.090     -38.861    -166.617
  H      -42.060     -37.459    -173.220
  H      -40.632     -36.381    -174.940
  H      -42.191     -35.560    -174.770
  P      -44.318     -35.906    -170.417
  C      -43.338     -36.474    -168.072
  O      -43.809     -35.480    -168.958
  O      -45.305     -37.133    -170.132
  O      -44.960     -34.828    -171.226
  H      -46.228     -36.816    -170.081
  H      -42.279     -36.285    -167.857
  H      -43.439     -37.482    -168.486
  H      -43.905     -36.418    -167.140
  H      -38.000     -35.410    -177.083
  H      -38.336     -35.561    -175.375
  H      -37.647     -34.083    -176.002

 3  4  5  6  7  8  9  10  11  12  23  26  30  31 0
 6-311+G(2d,p)
 ****
 33  35  36  37  38 0
 6-311+G(2d,p)
 ****
 1  2  13  14  15  16  17  18  19  20  21  22  24  25 0
 3-21G
 ****
 27  28  29  32  34  39  40  41  42  43  44  45  46  47  48  49 0
 3-21G
 ****


