%nproc=1
%NoSave
%Mem=1900MB
#P OB98/GEN NMR

erre ene a

0 1
  C     -215.161    -708.468     119.773
  O     -214.085    -707.628     119.394
  H     -216.053    -707.855     119.915
  H     -214.924    -708.966     120.717
  H     -215.359    -709.211     118.997
  P     -212.695    -708.344     119.049
  C     -212.547    -710.532     117.665
  O     -212.931    -709.168     117.684
  C     -212.250    -710.991     116.235
  O     -213.490    -710.924     115.461
  C     -211.199    -710.138     115.504
  O     -210.451    -711.009     114.643
  C     -212.050    -709.231     114.622
  O     -211.324    -708.706     113.520
  C     -213.183    -710.190     114.252
  N     -215.130    -708.059     110.123
  C     -213.936    -708.740     110.311
  N     -213.140    -708.876     109.230
  N     -213.561    -709.248     111.453
  C     -214.467    -709.064     112.443
  C     -215.682    -708.406     112.394
  C     -216.068    -707.833     111.123
  O     -217.100    -707.200     110.900
  N     -216.298    -708.414     113.620
  C     -215.467    -709.084     114.406
  N     -214.346    -709.493     113.742
  O     -212.599    -709.485     120.170
  O     -211.497    -707.451     119.052
  H     -211.871    -708.006     113.101
  H     -212.087    -709.160     120.934
  H     -215.360    -707.682     109.225
  H     -215.627    -709.280     115.461
  H     -212.874    -710.910     113.480
  H     -212.433    -708.385     115.218
  H     -213.384    -708.559     108.305
  H     -210.523    -709.596     116.162
  H     -212.277    -709.411     109.330
  H     -211.958    -712.044     116.260
  H     -213.360    -711.143     118.079
  H     -211.651    -710.664     118.285
  P     -209.395    -712.013     115.319
  C     -209.448    -713.369     117.538
  O     -210.175    -712.894     116.410
  O     -208.501    -711.030     116.218
  O     -208.557    -712.775     114.337
  H     -207.607    -711.400     116.324
  H     -210.100    -713.936     118.169
  H     -209.055    -712.538     118.085
  H     -208.642    -713.991     117.207

 6  7  8  9  10  11  12  13  14  15  26  29  33  34 0
 6-311+G(2d,p)
 ****
 36  38  39  40  41 0
 6-311+G(2d,p)
 ****
 1  2  3  4  5  16  17  18  19  20  21  22  23  24  25 0
 3-21G
 ****
 27  28  30  31  32  35  37  42  43  44  45  46  47 0
 3-21G
 ****
 48  49 0
 3-21G
 ****


