%nproc=1
%NoSave
%Mem=1900MB
#P OB98/GEN NMR

erre ene a

0 1
  C      -28.886    -116.967    -230.049
  O      -29.232    -118.332    -230.168
  H      -28.681    -116.566    -231.045
  H      -27.990    -116.859    -229.434
  H      -29.710    -116.401    -229.604
  P      -29.686    -119.088    -228.830
  C      -27.233    -119.817    -228.348
  O      -28.391    -119.142    -227.880
  C      -26.601    -120.613    -227.204
  O      -26.162    -119.682    -226.179
  C      -27.573    -121.600    -226.542
  O      -26.859    -122.781    -226.169
  C      -28.028    -120.858    -225.299
  O      -28.499    -121.709    -224.263
  C      -26.748    -120.100    -224.926
  N      -27.005    -118.948    -224.066
  C      -26.782    -119.104    -222.702
  O      -26.312    -120.115    -222.179
  N      -27.124    -118.031    -221.919
  C      -27.675    -116.861    -222.350
  O      -27.981    -115.943    -221.598
  C      -27.896    -116.757    -223.802
  C      -27.557    -117.791    -224.579
  O      -29.854    -120.610    -229.303
  O      -30.912    -118.554    -228.171
  H      -30.768    -120.773    -229.603
  H      -29.286    -122.185    -224.594
  H      -26.967    -118.127    -220.926
  H      -28.340    -115.846    -224.182
  H      -27.722    -117.752    -225.651
  H      -26.032    -120.775    -224.440
  H      -28.832    -120.157    -225.551
  H      -28.412    -121.864    -227.186
  H      -25.709    -121.129    -227.579
  H      -26.511    -119.079    -228.713
  H      -27.510    -120.486    -229.168
  P      -26.547    -123.851    -227.327
  C      -29.036    -124.641    -227.504
  O      -27.922    -124.033    -228.138
  O      -26.404    -125.198    -226.481
  O      -25.356    -123.487    -228.152
  H      -27.017    -125.254    -225.730
  H      -29.858    -124.679    -228.187
  H      -29.313    -124.068    -226.644
  H      -28.777    -125.634    -227.203

 6  7  8  9  10  11  12  13  14  15  16  27  31  32  33  34  35 0
 6-311+G(2d,p)
 ****
 36  37 0
 6-311+G(2d,p)
 ****
 1  2  3  4  5  17  18  19  20  21  22  23  24  25 0
 3-21G
 ****
 26  28  29  30  38  39  40  41  42  43  44  45 0
 3-21G
 ****


