%nproc=1
%NoSave
%Mem=1900MB
#P OB98/GEN NMR

erre ene a

0 1
  C     -360.145      87.010    -152.579
  O     -361.133      86.869    -151.583
  H     -360.584      87.536    -153.433
  H     -359.808      86.025    -152.910
  H     -359.293      87.587    -152.214
  P     -360.686      86.428    -150.109
  C     -362.161      84.327    -150.389
  O     -360.892      84.842    -150.007
  C     -362.207      82.808    -150.225
  O     -361.255      82.203    -151.141
  C     -361.796      82.378    -148.807
  O     -362.399      81.150    -148.421
  C     -360.294      82.175    -148.947
  O     -359.754      81.307    -147.947
  C     -360.194      81.619    -150.369
  N     -355.153      80.818    -150.308
  C     -356.105      80.506    -149.355
  N     -355.644      79.894    -148.229
  N     -357.374      80.787    -149.470
  C     -357.676      81.460    -150.610
  C     -356.831      81.845    -151.619
  C     -355.426      81.497    -151.496
  O     -354.546      81.771    -152.299
  N     -357.502      82.513    -152.606
  C     -358.751      82.546    -152.198
  N     -358.917      81.894    -150.997
  O     -361.859      86.992    -149.175
  O     -359.340      86.928    -149.663
  H     -359.964      81.698    -147.079
  H     -361.542      87.094    -148.258
  H     -354.196      80.551    -150.181
  H     -359.577      83.009    -152.731
  H     -360.335      80.530    -150.366
  H     -359.801      83.143    -148.828
  H     -354.660      79.839    -148.019
  H     -362.018      83.135    -148.060
  H     -356.250      79.945    -147.404
  H     -363.197      82.429    -150.505
  H     -362.316      84.611    -151.439
  H     -362.953      84.804    -149.810
  P     -363.798      81.193    -147.636
  C     -363.606      78.947    -146.235
  O     -363.678      80.358    -146.278
  O     -364.771      80.311    -148.542
  O     -364.330      82.571    -147.414
  H     -365.492      80.860    -148.907
  H     -363.531      78.625    -145.218
  H     -362.745      78.617    -146.778
  H     -364.487      78.531    -146.677

 6  7  8  9  10  11  12  13  14  15  26  29  33  34 0
 6-311+G(2d,p)
 ****
 36  38  39  40  41 0
 6-311+G(2d,p)
 ****
 1  2  3  4  5  16  17  18  19  20  21  22  23  24  25 0
 3-21G
 ****
 27  28  30  31  32  35  37  42  43  44  45  46  47 0
 3-21G
 ****
 48  49 0
 3-21G
 ****


