%nproc=1
%NoSave
%Mem=1900MB
#P OB98/GEN NMR

erre ene a

0 1
  C      102.883    -106.215     172.973
  O      101.483    -105.986     172.898
  P      100.931    -104.562     173.393
  C      100.123    -105.520     175.657
  O      100.974    -104.592     175.000
  C       99.012    -104.801     176.414
  O       97.980    -105.763     176.765
  C       99.474    -104.122     177.715
  O       98.873    -102.822     177.810
  C       98.865    -104.991     178.803
  O       98.666    -104.269     180.014
  C       97.578    -105.440     178.112
  N       94.610    -106.865     181.944
  C       94.880    -105.600     181.460
  N       94.325    -104.567     182.132
  N       95.632    -105.366     180.416
  C       96.094    -106.495     179.826
  C       95.890    -107.802     180.203
  C       95.105    -108.042     181.398
  O       94.905    -109.133     181.927
  N       96.509    -108.673     179.345
  C       97.092    -107.896     178.452
  N       96.910    -106.565     178.727
  O       99.370    -104.648     173.053
  O      101.562    -103.377     172.751
  H       99.526    -103.881     180.259
  H       99.117    -103.899     172.479
  H       94.041    -106.989     182.763
  H       97.678    -108.250     177.612
  H       96.859    -104.611     178.063
  H       99.533    -105.836     179.004
  H       93.709    -104.680     182.922
  H      100.561    -104.035     177.815
  H       94.494    -103.634     181.781
  H       98.549    -104.068     175.741
  H      100.715    -106.114     176.364
  H       99.690    -106.195     174.909
  P       99.733    -101.702     178.575
  C       97.977    -101.841     180.495
  O       99.342    -101.837     180.122
  O       99.044    -100.332     178.123
  O      101.192    -101.742     178.262
  H       99.675     -99.592     178.196
  H       97.312    -101.911     179.627
  H       97.751    -100.918     181.038
  H       97.789    -102.694     181.153
  H      103.103    -107.198     172.612
  H      103.205    -106.128     173.990
  H      103.395    -105.492     172.373

 3  4  5  6  7  8  9  10  11  12  23  26  30  31  33  0
 6-311+G(2d,p)
 ****
 35  36  37  38 0
 6-311+G(2d,p)
 ****
 1  2  13  14  15  16  17  18  19  20  21  22  24  25  27  28  29 0
 3-21G
 ****
 32  34  39  40  41  42  43  44  45  46  47  48  49 0
 3-21G
 ****


