%nproc=1
%NoSave
%Mem=1900MB
#P OB98/GEN NMR

erre ene a

0 1
  C      107.622     261.944     986.098
  O      106.330     261.367     986.131
  P      105.205     261.788     985.064
  C      104.479     259.319     984.953
  O      104.066     260.664     985.196
  C      103.335     258.353     985.259
  O      102.161     258.804     984.551
  C      103.550     256.898     984.827
  O      104.280     256.107     985.756
  C      102.104     256.411     984.783
  O      101.647     256.119     986.117
  C      101.372     257.621     984.212
  N       97.976     257.325     980.407
  C       97.817     257.396     981.742
  N       98.773     257.469     982.690
  C      100.008     257.471     982.127
  C      100.315     257.401     980.775
  C       99.223     257.326     979.890
  N       99.383     257.253     978.515
  N      101.681     257.432     980.597
  C      102.190     257.527     981.798
  N      101.212     257.560     982.771
  O      105.716     262.045     983.690
  O      104.505     263.075     985.723
  H      101.718     256.943     986.624
  H      104.005     263.566     985.034
  H       96.798     257.417     982.111
  H      103.243     257.560     982.035
  H      100.379     257.758     984.658
  H      102.001     255.488     984.184
  H      103.986     256.858     983.825
  H      103.133     258.413     986.342
  H      105.330     259.103     985.620
  H       98.545     257.334     977.953
  H      100.314     257.439     978.135
  H      104.822     259.219     983.922
  P      105.357     255.073     985.133
  C      106.769     255.524     987.300
  O      106.253     254.587     986.374
  O      106.123     255.589     983.959
  O      104.448     253.787     984.819
  H      104.084     253.323     985.588
  H      107.206     254.988     988.161
  H      105.985     256.180     987.670
  H      107.566     256.130     986.816
  H      108.217     261.532     986.886
  H      107.543     263.003     986.227
  H      108.083     261.733     985.156

 3  4  5  6  7  8  9  10  11  12  22  25  29  30  31  32 0
 6-311+G(2d,p)
 ****
 33  36  37 0
 6-311+G(2d,p)
 ****
 1  2  13  14  15  16  17  18  19  20  21  23  24  26 0
 3-21G
 ****
 27  28  34  35  38  39  40  41  42  43  44  45  46  47  48 0
 3-21G
 ****


