%nproc=1
%NoSave
%Mem=1900MB
#P OB98/GEN NMR

erre ene a

0 1
  C      -45.758      25.448    -138.337
  O      -44.933      26.267    -137.502
  P      -45.277      27.834    -137.467
  C      -44.564      29.937    -138.813
  O      -44.281      28.588    -138.473
  C      -43.280      30.654    -139.237
  O      -42.487      31.050    -138.099
  C      -42.357      29.789    -140.088
  O      -42.852      29.664    -141.411
  C      -41.047      30.563    -139.969
  O      -41.047      31.694    -140.857
  C      -41.097      31.051    -138.511
  N      -36.479      29.047    -137.574
  C      -36.938      29.835    -138.575
  N      -38.183      30.327    -138.751
  C      -38.997      29.933    -137.757
  C      -38.672      29.134    -136.672
  C      -37.345      28.676    -136.601
  N      -36.885      27.860    -135.591
  N      -39.773      28.943    -135.862
  C      -40.749      29.598    -136.459
  N      -40.326      30.223    -137.602
  O      -44.769      28.289    -136.018
  O      -46.726      28.136    -137.665
  H      -41.001      31.349    -141.770
  H      -45.534      28.474    -135.440
  H      -36.207      30.112    -139.329
  H      -41.773      29.648    -136.105
  H      -40.724      32.078    -138.406
  H      -40.169      29.957    -140.208
  H      -42.249      28.795    -139.637
  H      -43.561      31.557    -139.799
  H      -45.012      30.458    -137.962
  H      -35.940      27.515    -135.655
  H      -37.539      27.507    -134.908
  H      -45.310      29.952    -139.616
  P      -43.689      28.346    -141.775
  C      -43.121      25.840    -141.700
  O      -42.610      27.161    -141.632
  O      -43.841      28.488    -143.359
  O      -44.954      28.169    -141.007
  H      -42.999      28.741    -143.783
  H      -42.284      25.140    -141.624
  H      -43.632      25.682    -142.655
  H      -43.810      25.661    -140.872
  H      -45.430      24.431    -138.275
  H      -45.686      25.785    -139.350
  H      -46.775      25.516    -138.010

 3  4  5  6  7  8  9  10  11  12  22  25  29  30  31  32 0
 6-311+G(2d,p)
 ****
 33  36  37 0
 6-311+G(2d,p)
 ****
 1  2  13  14  15  16  17  18  19  20  21  23  24  26 0
 3-21G
 ****
 27  28  34  35  38  39  40  41  42  43  44  45  46  47  48 0
 3-21G
 ****


