%nproc=1
%NoSave
%Mem=1900MB
#P OB98/GEN NMR

erre ene a

0 1
  C      -57.040     288.472    -312.607
  O      -57.840     289.244    -311.711
  P      -57.134     290.060    -310.529
  C      -59.179     289.637    -308.997
  O      -58.254     290.594    -309.509
  C      -60.160     290.320    -308.039
  O      -59.467     290.944    -306.927
  C      -60.935     291.458    -308.695
  O      -61.894     291.098    -309.666
  C      -61.428     292.245    -307.495
  O      -62.616     291.685    -306.945
  C      -60.243     292.084    -306.511
  N      -59.412     293.289    -306.425
  C      -59.721     294.168    -305.391
  O      -60.655     293.998    -304.612
  N      -58.929     295.285    -305.308
  C      -57.913     295.610    -306.155
  O      -57.249     296.638    -306.046
  C      -57.648     294.653    -307.239
  C      -58.401     293.553    -307.324
  O      -56.128     291.075    -310.955
  O      -56.419     288.897    -309.674
  H      -62.924     292.283    -306.238
  H      -55.542     289.228    -309.401
  H      -59.133     295.935    -304.560
  H      -56.853     294.886    -307.938
  H      -58.228     292.831    -308.117
  H      -60.612     291.863    -305.501
  H      -61.658     293.284    -307.760
  H      -60.211     292.097    -309.218
  H      -60.831     289.564    -307.629
  H      -58.639     288.841    -308.484
  H      -59.704     289.167    -309.839
  P      -61.729     291.429    -311.226
  C      -64.287     291.476    -311.677
  O      -63.036     290.904    -312.000
  O      -60.404     291.146    -311.856
  O      -61.969     293.024    -311.234
  H      -61.414     293.412    -311.944
  H      -65.058     290.990    -312.279
  H      -64.280     292.544    -311.900
  H      -64.515     291.322    -310.617
  H      -57.671     287.997    -313.329
  H      -56.505     287.727    -312.056
  H      -56.345     289.113    -313.108

 3  4  5  6  7  8  9  10  11  12  13  23  28  29  30  31  32 0
 6-311+G(2d,p)
 ****
 33  34 0
 6-311+G(2d,p)
 ****
 1  2  14  15  16  17  18  19  20  21  22  24  25  26  27 0
 3-21G
 ****
 35  36  37  38  39  40  41  42  43  44  45 0
 3-21G
 ****


