%nproc=1
%NoSave
%Mem=1900MB
#P OB98/GEN NMR

erre ene a

0 1
  C     -481.222    -889.261    -254.826
  O     -481.651    -890.611    -254.872
  H     -480.133    -889.241    -254.921
  H     -481.504    -888.811    -253.864
  H     -481.664    -888.691    -255.647
  P     -483.240    -890.861    -254.927
  C     -483.420    -892.831    -256.650
  O     -483.427    -892.411    -255.299
  C     -483.086    -894.331    -256.752
  O     -481.762    -894.541    -256.230
  C     -484.063    -895.211    -255.969
  O     -484.237    -896.431    -256.692
  C     -483.309    -895.501    -254.680
  O     -483.757    -896.691    -254.050
  C     -481.855    -895.541    -255.177
  N     -480.888    -895.301    -254.107
  C     -480.768    -896.301    -253.126
  O     -481.477    -897.321    -253.182
  N     -479.899    -896.101    -252.097
  C     -479.238    -894.991    -252.010
  N     -478.409    -894.861    -250.933
  C     -479.361    -893.901    -252.984
  C     -480.181    -894.131    -254.004
  O     -483.645    -890.091    -256.272
  O     -483.977    -890.401    -253.707
  H     -483.622    -897.451    -254.673
  H     -483.043    -890.261    -257.010
  H     -478.795    -892.991    -252.858
  H     -480.325    -893.381    -254.787
  H     -481.632    -896.521    -255.638
  H     -483.438    -894.681    -253.970
  H     -485.025    -894.741    -255.800
  H     -483.061    -894.601    -257.807
  H     -478.373    -895.621    -250.268
  H     -482.682    -892.261    -257.230
  H     -477.890    -894.011    -250.738
  H     -484.404    -892.621    -257.069
  P     -485.676    -896.791    -257.290
  C     -485.287    -898.941    -258.681
  O     -485.807    -898.381    -257.477
  O     -486.113    -895.991    -258.458
  O     -486.650    -896.531    -256.032
  H     -487.460    -896.091    -256.364
  H     -485.439    -900.000    -258.676
  H     -484.240    -898.731    -258.749
  H     -485.792    -898.512    -259.521

 6  7  8  9  10  11  12  13  14  15  16  26  30  31  32  33  35 0
 6-311+G(2d,p)
 ****
 37  38 0
 6-311+G(2d,p)
 ****
 1  2  3  4  5  17  18  19  20  21  22  23  24  25 0
 3-21G
 ****
 27  28  29  34  36  39  40  41  42  43  44  45  46 0
 3-21G
 ****


