%nproc=1
%NoSave
%Mem=1900MB
#P OB98/GEN NMR

erre ene a

0 1
  C       -7.252     151.402     -82.055
  O       -6.778     152.569     -82.700
  H       -8.286     151.571     -81.741
  H       -6.651     151.183     -81.168
  H       -7.228     150.550     -82.740
  P       -5.273     152.573     -83.248
  C       -5.812     153.651     -85.533
  O       -5.388     152.480     -84.846
  C       -7.167     153.409     -86.191
  O       -8.150     153.049     -85.202
  C       -7.720     154.625     -86.932
  O       -7.124     154.738     -88.216
  C       -9.197     154.265     -86.986
  O       -9.419     153.274     -88.007
  C       -9.417     153.653     -85.591
  N      -13.069     155.017     -82.349
  C      -13.055     154.010     -83.299
  N      -14.192     153.296     -83.428
  N      -12.026     153.747     -84.062
  C      -10.985     154.588     -83.867
  C      -10.885     155.630     -82.973
  C      -12.010     155.878     -82.096
  O      -12.058     156.748     -81.228
  N       -9.699     156.304     -83.112
  C       -9.064     155.645     -84.059
  N       -9.808     154.603     -84.565
  O       -4.345     151.558     -82.650
  O       -4.772     154.071     -83.000
  H      -10.259     152.830     -87.787
  H       -4.322     154.154     -82.139
  H      -13.898     155.183     -81.805
  H       -8.068     155.878     -84.419
  H      -10.171     152.855     -85.602
  H       -9.839     155.117     -87.214
  H      -15.080     153.637     -83.080
  H       -7.608     155.544     -86.347
  H      -14.219     152.590     -84.151
  H       -7.063     152.551     -86.870
  H       -5.055     153.883     -86.288
  H       -5.887     154.494     -84.837
  P       -6.686     156.169     -88.804
  C       -4.263     155.434     -89.323
  O       -5.109     156.258     -88.530
  O       -7.472     157.326     -88.286
  O       -6.756     155.991     -90.387
  H       -7.647     156.196     -90.767
  H       -3.244     155.591     -89.038
  H       -4.388     155.684     -90.356
  H       -4.521     154.407     -89.171

 6  7  8  9  10  11  12  13  14  15  26  29  33  34 0
 6-311+G(2d,p)
 ****
 36  38  39  40  41 0
 6-311+G(2d,p)
 ****
 1  2  3  4  5  16  17  18  19  20  21  22  23  24  25 0
 3-21G
 ****
 27  28  30  31  32  35  37  42  43  44  45  46  47 0
 3-21G
 ****
 48  49 0
 3-21G
 ****


