%nproc=1
%NoSave
%Mem=1900MB
#P OB98/GEN NMR

erre ene a

0 1
  C     -141.808    1017.073    -731.684
  O     -142.509    1015.969    -731.146
  H     -140.862    1016.719    -732.088
  H     -141.610    1017.817    -730.908
  H     -142.392    1017.521    -732.491
  P     -143.929    1016.282    -730.465
  C     -145.063    1015.496    -732.654
  O     -144.922    1016.548    -731.699
  C     -146.308    1014.658    -732.350
  O     -147.435    1015.501    -732.129
  C     -146.691    1013.687    -733.454
  O     -145.933    1012.498    -733.371
  C     -148.156    1013.445    -733.121
  O     -148.249    1012.462    -732.068
  C     -148.624    1014.817    -732.610
  N     -152.686    1015.287    -735.705
  C     -152.227    1014.237    -734.989
  N     -151.101    1014.164    -734.234
  C     -150.445    1015.336    -734.241
  C     -150.796    1016.489    -734.926
  C     -151.977    1016.447    -735.684
  N     -152.460    1017.522    -736.422
  N     -149.877    1017.498    -734.704
  C     -149.020    1016.977    -733.852
  N     -149.299    1015.656    -733.572
  O     -143.918    1017.321    -729.395
  O     -144.360    1014.816    -729.969
  H     -147.858    1011.635    -732.418
  H     -144.132    1014.150    -730.650
  H     -152.820    1013.334    -735.029
  H     -148.186    1017.508    -733.403
  H     -149.299    1014.718    -731.745
  H     -148.730    1013.057    -733.961
  H     -146.620    1014.158    -734.446
  H     -146.111    1014.120    -731.401
  H     -144.172    1014.861    -732.659
  H     -153.195    1017.340    -737.078
  H     -151.865    1018.326    -736.499
  H     -145.151    1015.963    -733.643
  P     -145.250    1011.844    -734.662
  C     -142.950    1012.833    -734.061
  O     -144.020    1012.815    -735.012
  O     -146.190    1011.573    -735.783
  O     -144.534    1010.525    -734.114
  H     -144.318    1009.926    -734.855
  H     -142.190    1013.509    -734.392
  H     -142.538    1011.850    -733.969
  H     -143.323    1013.154    -733.111

 6  7  8  9  10  11  12  13  14  15  25  28  32  33  34  35 0
 6-311+G(2d,p)
 ****
 36  39  40 0
 6-311+G(2d,p)
 ****
 1  2  3  4  5  16  17  18  19  20  21  22  23  24 0
 3-21G
 ****
 26  27  29  30  31  37  38  41  42  43  44  45  46  47 0
 3-21G
 ****
 48 0
 3-21G
 ****


