%nproc=1
%NoSave
%Mem=1900MB
#P OB98/GEN NMR

erre ene a

0 1
  C      -42.956      54.278     139.469
  O      -43.082      54.162     138.066
  H      -42.370      53.433     139.840
  H      -43.943      54.255     139.938
  H      -42.441      55.207     139.729
  P      -43.877      55.336     137.314
  C      -46.215      56.339     137.852
  O      -45.419      55.166     137.723
  C      -47.378      56.071     138.803
  O      -46.863      55.763     140.118
  C      -48.315      57.257     138.997
  O      -49.226      57.395     137.921
  C      -48.983      56.896     140.316
  O      -50.078      55.991     140.121
  C      -47.853      56.192     141.080
  N      -47.616      57.239     146.062
  C      -48.261      56.274     145.371
  N      -48.257      56.051     144.040
  C      -47.479      56.950     143.414
  C      -46.767      57.992     143.983
  C      -46.851      58.123     145.378
  N      -46.224      59.126     146.078
  N      -46.124      58.728     143.007
  C      -46.433      58.135     141.872
  N      -47.244      57.054     142.071
  O      -43.837      54.869     135.782
  O      -43.315      56.705     137.498
  H      -50.706      56.437     139.521
  H      -43.085      55.296     135.330
  H      -48.864      55.593     145.966
  H      -46.105      58.454     140.890
  H      -48.205      55.294     141.603
  H      -49.379      57.779     140.818
  H      -47.736      58.179     139.136
  H      -47.930      55.194     138.440
  H      -46.610      56.617     136.870
  H      -45.588      57.153     138.230
  H      -46.348      59.173     147.076
  H      -45.740      59.851     145.566
  P      -50.057      58.757     137.793
  C      -52.088      59.804     139.035
  O      -51.036      58.852     139.060
  O      -51.047      58.470     136.569
  O      -49.226      59.976     137.564
  H      -50.707      58.880     135.752
  H      -52.646      59.743     139.946
  H      -52.734      59.600     138.207
  H      -51.677      60.787     138.934

 6  7  8  9  10  11  12  13  14  15  25  28  32  33  34  35 0
 6-311+G(2d,p)
 ****
 36  37  40 0
 6-311+G(2d,p)
 ****
 1  2  3  4  5  16  17  18  19  20  21  22  23  24 0
 3-21G
 ****
 26  27  29  30  31  38  39 41  42  43  44  45  46  47  48 0
 3-21G
 ****


