%nproc=1
%NoSave
%Mem=1900MB
#P OB98/GEN NMR

erre ene a

0 1
  C     -247.291      86.866      76.603
  O     -245.989      86.357      76.822
  H     -247.868      86.766      77.526
  H     -247.785      86.299      75.810
  H     -247.243      87.924      76.328
  P     -244.969      86.453      75.589
  C     -245.163      84.012      74.692
  O     -245.484      85.384      74.508
  C     -245.901      83.154      73.656
  O     -247.338      83.313      73.863
  C     -245.610      83.555      72.202
  O     -245.721      82.384      71.374
  C     -246.766      84.492      71.900
  O     -246.902      84.678      70.511
  C     -247.895      83.743      72.603
  N     -252.928      84.044      71.841
  C     -252.034      83.064      71.588
  N     -250.706      83.057      71.831
  C     -250.329      84.205      72.418
  C     -251.122      85.296      72.734
  C     -252.485      85.189      72.415
  N     -253.396      86.193      72.644
  N     -250.361      86.299      73.304
  C     -249.133      85.820      73.338
  N     -249.068      84.558      72.816
  O     -243.631      85.791      76.170
  O     -244.730      87.823      75.052
  H     -247.743      85.134      70.298
  H     -243.054      86.484      76.542
  H     -252.437      82.164      71.132
  H     -248.262      86.337      73.714
  H     -248.210      82.851      72.050
  H     -246.605      85.477      72.349
  H     -244.625      84.008      72.065
  H     -245.672      82.099      73.836
  H     -245.458      83.718      75.703
  H     -244.082      83.872      74.574
  H     -254.353      86.049      72.362
  H     -253.077      87.068      73.041
  P     -244.381      81.684      70.829
  C     -244.672      83.037      68.617
  O     -243.786      82.503      69.587
  O     -244.962      80.367      70.119
  O     -243.387      81.303      71.876
  H     -244.428      79.591      70.373
  H     -244.110      83.549      67.864
  H     -245.345      83.723      69.088
  H     -245.229      82.242      68.167

 6  7  8  9  10  11  12  13  14  15  25  28  32  33  34  35 0
 6-311+G(2d,p)
 ****
 36  37  40 0
 6-311+G(2d,p)
 ****
 1  2  3  4  5  16  17  18  19  20  21  22  23  24 0
 3-21G
 ****
 26  27  29  30  31  38  39 41  42  43  44  45  46  47  48 0
 3-21G
 ****


