%nproc=1
%NoSave
%Mem=1900MB
#P OB98/GEN NMR

erre ene a

0 1
  C      536.117    -331.246     320.900
  O      536.569    -330.911     322.199
  H      535.381    -330.516     320.558
  H      536.969    -331.239     320.215
  H      535.677    -332.247     320.905
  P      535.463    -330.828     323.354
  C      535.794    -333.258     324.197
  O      534.914    -332.322     323.587
  C      535.668    -333.175     325.718
  O      534.345    -333.639     326.090
  C      536.702    -334.008     326.493
  O      537.455    -333.167     327.373
  C      535.867    -334.962     327.338
  O      536.379    -335.140     328.655
  C      534.492    -334.305     327.351
  N      532.347    -337.462     330.734
  C      533.099    -336.349     330.901
  N      533.549    -335.492     329.962
  C      533.130    -335.863     328.740
  C      532.337    -336.956     328.414
  C      531.960    -337.791     329.480
  N      531.238    -338.953     329.303
  N      532.123    -337.012     327.048
  C      532.805    -336.004     326.553
  N      533.442    -335.288     327.536
  O      534.237    -330.088     322.636
  O      535.890    -330.114     324.590
  H      537.290    -335.471     328.560
  H      533.905    -329.367     323.207
  H      533.380    -336.119     331.922
  H      532.909    -335.765     325.500
  H      534.402    -333.550     328.149
  H      535.833    -335.936     326.838
  H      537.381    -334.561     325.833
  H      535.735    -332.119     326.009
  H      536.826    -333.029     323.915
  H      531.113    -339.553     330.104
  H      531.047    -339.262     328.362
  H      535.552    -334.262     323.841
  P      539.059    -333.254     327.256
  C      539.277    -331.142     325.753
  O      539.479    -332.545     325.880
  O      539.311    -334.811     326.956
  O      539.781    -332.792     328.474
  H      540.198    -335.070     327.276
  H      539.604    -330.821     324.786
  H      539.838    -330.631     326.507
  H      538.237    -330.919     325.870

 6  7  8  9  10  11  12  13  14  15  25  28  32  33  34  35 0
 6-311+G(2d,p)
 ****
 36  39  40 0
 6-311+G(2d,p)
 ****
 1  2  3  4  5  16  17  18  19  20  21  22  23  24 0
 3-21G
 ****
 26  27  29  30  31  37  38  41  42  43  44  45  46  47  48 0
 3-21G
 ****


