%nproc=1
%NoSave
%Mem=1900MB
#P OB98/GEN NMR

erre ene a

0 1
  C      -13.514     400.932     684.164
  O      -12.149     401.280     684.288
  H      -14.106     401.851     684.103
  H      -13.834     400.368     685.042
  H      -13.694     400.341     683.257
  P      -11.039     400.138     684.103
  C       -8.735     400.155     682.942
  O       -9.672     400.891     683.712
  C       -7.428     400.938     682.777
  O       -7.716     402.188     682.091
  C       -6.742     401.288     684.108
  O       -5.328     401.323     683.866
  C       -7.264     402.686     684.370
  O       -6.476     403.367     685.316
  C       -7.262     403.266     682.946
  N       -8.099     404.457     682.820
  C       -7.512     405.669     683.172
  O       -6.362     405.763     683.601
  N       -8.305     406.778     683.061
  C       -9.624     406.780     682.694
  O      -10.292     407.803     682.647
  C      -10.205     405.469     682.385
  C       -9.428     404.377     682.452
  O      -11.409     399.010     683.201
  O      -10.736     399.637     685.596
  H       -5.531     403.348     685.053
  H      -10.474     398.691     685.584
  H       -7.886     407.663     683.297
  H      -11.248     405.437     682.103
  H       -9.828     403.398     682.238
  H       -6.238     403.530     682.635
  H       -8.284     402.652     684.756
  H       -6.973     400.587     684.914
  H       -6.751     400.365     682.127
  H       -9.180     399.972     681.952
  H       -8.533     399.188     683.425
  P       -4.276     400.627     684.852
  C       -2.911     398.613     683.969
  O       -3.056     400.037     683.989
  O       -4.879     399.632     685.800
  O       -3.603     401.835     685.663
  H       -3.305     401.527     686.544
  H       -2.069     398.349     683.364
  H       -3.796     398.170     683.561
  H       -2.760     398.256     684.966

 6  7  8  9  10  11  12  13  14  15  16  26  31  32  33  34  35 0
 6-311+G(2d,p)
 ****
 36  37 0
 6-311+G(2d,p)
 ****
 1  2  3  4  5  17  18  19  20  21  22  23  24  25 0
 3-21G
 ****
 27  28  29  30  38  39  40  41  42  43  44  45 0
 3-21G
 ****


