%nproc=1
%NoSave
%Mem=1900MB
#P OB98/GEN NMR

erre ene a

0 1
  C       63.340     -35.918     438.859
  O       62.831     -37.237     438.887
  H       63.624     -35.657     437.837
  H       62.558     -35.232     439.191
  H       64.202     -35.819     439.523
  P       63.886     -38.434     438.728
  C       62.626     -39.237     436.606
  O       63.143     -39.582     437.882
  C       62.648     -40.448     435.676
  O       64.036     -40.799     435.407
  C       61.951     -41.695     436.241
  O       61.258     -42.349     435.176
  C       63.108     -42.568     436.690
  O       62.776     -43.951     436.714
  C       64.170     -42.209     435.656
  N       68.420     -44.769     434.551
  C       67.372     -44.393     433.792
  N       66.301     -43.661     434.155
  C       66.411     -43.256     435.432
  C       67.422     -43.554     436.327
  C       68.462     -44.369     435.845
  N       69.499     -44.817     436.629
  N       67.151     -43.000     437.564
  C       65.983     -42.403     437.421
  N       65.498     -42.531     436.149
  O       63.943     -39.039     440.211
  O       65.235     -38.041     438.233
  H       62.029     -44.086     437.331
  H       64.614     -38.562     440.733
  H       67.391     -44.730     432.758
  H       65.437     -41.895     438.203
  H       64.033     -42.744     434.706
  H       63.423     -42.271     437.697
  H       61.251     -41.476     437.057
  H       62.201     -40.159     434.716
  H       63.246     -38.445     436.172
  H       70.138     -45.483     436.225
  H       69.485     -44.617     437.619
  H       61.604     -38.862     436.717
  P       59.686     -42.070     435.033
  C       59.041     -44.270     436.267
  O       58.912     -43.470     435.099
  O       59.529     -41.630     433.503
  O       59.172     -41.019     435.963
  H       58.810     -40.980     433.410
  H       58.466     -45.165     436.151
  H       58.684     -43.724     437.115
  H       60.070     -44.523     436.414

 6  7  8  9  10  11  12  13  14  15  25  28  32  33  34  35 0
 6-311+G(2d,p)
 ****
 36  39  40 0
 6-311+G(2d,p)
 ****
 1  2  3  4  5  16  17  18  19  20  21  22  23  24 0
 3-21G
 ****
 26  27  29  30  31  37  38  41  42  43  44  45  46  47 0
 3-21G
 ****
 48 0
 3-21G
 ****


