%nproc=1
%NoSave
%Mem=1900MB
#P OB98/GEN NMR

erre ene a

0 1
  C       -7.017     -42.033      49.397
  O       -6.383     -42.419      50.598
  H       -6.960     -40.945      49.307
  H       -8.070     -42.327      49.402
  H       -6.509     -42.480      48.538
  P       -6.435     -43.967      51.022
  C       -8.744     -43.932      52.196
  O       -8.005     -44.317      51.048
  C       -9.680     -45.060      52.624
  O      -10.723     -45.266      51.649
  C       -9.013     -46.425      52.773
  O       -8.214     -46.537      53.938
  C      -10.244     -47.315      52.823
  O      -10.859     -47.213      54.120
  C      -11.133     -46.660      51.737
  N      -11.014     -47.310      50.434
  C      -11.710     -48.514      50.268
  O      -12.380     -48.982      51.188
  N      -11.599     -49.184      49.073
  C      -10.846     -48.705      48.134
  N      -10.733     -49.431      46.987
  C      -10.110     -47.432      48.258
  C      -10.232     -46.796      49.422
  O       -5.676     -44.341      52.255
  O       -5.952     -44.754      49.715
  H      -11.674     -47.747      54.092
  H       -5.955     -45.719      49.930
  H       -9.489     -47.081      47.447
  H       -9.708     -45.863      49.596
  H      -12.186     -46.666      52.040
  H      -10.021     -48.372      52.650
  H       -8.436     -46.676      51.877
  H      -10.170     -44.747      53.556
  H      -11.217     -50.318      46.954
  H       -9.307     -43.026      51.952
  H       -9.969     -49.277      46.337
  H       -8.065     -43.715      53.026
  P       -6.842     -47.367      53.829
  C       -8.084     -49.545      54.534
  O       -7.249     -48.900      53.588
  O       -6.297     -47.352      55.332
  O       -5.842     -46.840      52.850
  H       -5.671     -46.615      55.473
  H       -8.258     -50.555      54.226
  H       -9.018     -49.026      54.598
  H       -7.607     -49.541      55.492

 6  7  8  9  10  11  12  13  14  15  16  26  30  31  32  33  35 0
 6-311+G(2d,p)
 ****
 37  38 0
 6-311+G(2d,p)
 ****
 1  2  3  4  5  17  18  19  20  21  22  23  24  25 0
 3-21G
 ****
 27  28  29  34  36  39  40  41  42  43  44  45  46 0
 3-21G
 ****


