%nproc=1
%NoSave
%Mem=1900MB
#P OB98/GEN NMR

erre ene a

0 1
  C     -263.845     184.431    -196.718
  O     -264.834     183.579    -197.258
  H     -263.193     184.767    -197.530
  H     -263.239     183.895    -195.986
  H     -264.304     185.309    -196.256
  P     -265.922     182.945    -196.265
  C     -267.925     182.966    -197.910
  O     -266.948     182.183    -197.242
  C     -268.534     182.178    -199.064
  O     -267.635     182.117    -200.193
  C     -268.848     180.719    -198.750
  O     -269.980     180.543    -197.916
  C     -269.076     180.191    -200.155
  O     -270.367     180.618    -200.627
  C     -267.935     180.896    -200.923
  N     -266.740     180.064    -201.043
  C     -266.918     178.785    -201.588
  O     -268.033     178.399    -201.932
  N     -265.828     177.955    -201.701
  C     -264.667     178.357    -201.284
  N     -263.624     177.492    -201.412
  C     -264.438     179.687    -200.686
  C     -265.503     180.479    -200.600
  O     -266.548     183.890    -195.291
  O     -265.166     181.717    -195.572
  H     -271.020     180.331    -199.963
  H     -265.795     181.296    -194.937
  H     -263.458     179.962    -200.328
  H     -265.418     181.470    -200.165
  H     -268.264     181.192    -201.928
  H     -269.053     179.102    -200.215
  H     -267.972     180.212    -198.328
  H     -269.430     182.718    -199.395
  H     -263.811     176.586    -201.825
  H     -267.443     183.880    -198.269
  H     -262.702     177.690    -201.046
  H     -268.726     183.235    -197.216
  P     -269.812     179.550    -196.661
  C     -271.025     180.879    -194.769
  O     -271.072     179.817    -195.709
  O     -268.579     180.177    -195.867
  O     -269.602     178.111    -197.014
  H     -267.752     179.701    -196.078
  H     -271.944     180.912    -194.222
  H     -270.883     181.806    -195.285
  H     -270.212     180.720    -194.092

 6  7  8  9  10  11  12  13  14  15  16  26  30  31  32  33  35 0
 6-311+G(2d,p)
 ****
 37  38 0
 6-311+G(2d,p)
 ****
 1  2  3  4  5  17  18  19  20  21  22  23  24  25 0
 3-21G
 ****
 27  28  29  34  36  39  40  41  42  43  44  45  46 0
 3-21G
 ****


