%nproc=1
%NoSave
%Mem=1900MB
#P OB98/GEN NMR

erre ene a

0 1
  C       -7.682     602.550    -382.683
  O       -7.280     601.225    -382.944
  P       -8.361     600.039    -382.988
  C       -8.825     600.165    -385.519
  O       -9.351     600.376    -384.206
  C       -9.423     598.892    -386.124
  O      -10.858     599.023    -386.288
  C       -8.915     598.573    -387.516
  O       -7.550     598.229    -387.649
  C       -9.935     597.546    -387.979
  O       -9.640     596.245    -387.465
  C      -11.237     598.099    -387.340
  N      -12.102     598.736    -388.332
  C      -13.322     598.110    -388.568
  O      -13.680     597.083    -388.001
  N      -14.115     598.693    -389.522
  C      -13.788     599.784    -390.275
  O      -14.538     600.225    -391.147
  C      -12.483     600.391    -389.994
  C      -11.708     599.855    -389.053
  O       -9.043     599.757    -381.694
  O       -7.522     598.803    -383.562
  H       -8.817     595.939    -387.887
  H       -7.138     598.946    -384.447
  H      -14.995     598.244    -389.719
  H      -12.204     601.265    -390.569
  H      -10.742     600.277    -388.825
  H      -11.803     597.286    -386.868
  H       -9.963     597.456    -389.070
  H       -9.051     599.465    -388.146
  H       -9.246     598.068    -385.424
  H       -7.741     600.054    -385.457
  H       -9.037     601.038    -386.145
  P       -6.549     598.964    -388.663
  C       -4.882     599.677    -386.808
  O       -5.736     600.083    -387.852
  O       -7.100     599.344    -389.997
  O       -5.418     597.836    -388.872
  H       -5.047     597.922    -389.771
  H       -4.452     600.564    -386.331
  H       -4.066     599.060    -387.199
  H       -5.442     599.115    -386.047
  H       -6.826     603.191    -382.695
  H       -8.150     602.598    -381.722
  H       -8.375     602.867    -383.434

 3  4  5  6  7  8  9  10  11  12  13  23  28  29  30  31  32 0
 6-311+G(2d,p)
 ****
 33  34 0
 6-311+G(2d,p)
 ****
 1  2  14  15  16  17  18  19  20  21  22  24  25  26  27 0
 3-21G
 ****
 35  36  37  38  39  40  41  42  43  44  45 0
 3-21G
 ****


