%nproc=1
%NoSave
%Mem=1900MB
#P OB98/GEN NMR

erre ene a

0 1
  C      102.434     -10.179      56.867
  O      101.476      -9.311      57.434
  H      101.992     -11.173      56.767
  H      103.309     -10.251      57.518
  H      102.737      -9.832      55.875
  P      101.806      -7.746      57.520
  C      101.005      -7.572      59.968
  O      100.831      -7.128      58.631
  C       99.650      -7.831      60.637
  O       99.007      -8.956      59.963
  C       99.741      -8.193      62.132
  O       98.536      -7.724      62.752
  C       99.773      -9.709      62.058
  O       99.585     -10.317      63.310
  C       98.699      -9.929      60.984
  N       98.645     -11.271      60.418
  C       97.656     -12.131      60.884
  O       96.820     -11.838      61.737
  N       97.649     -13.385      60.330
  C       98.503     -13.844      59.371
  O       98.429     -14.967      58.889
  C       99.531     -12.892      58.924
  C       99.552     -11.668      59.454
  O      101.826      -7.015      56.220
  O      103.236      -7.702      58.241
  H      103.933      -7.546      57.576
  H       98.729     -10.017      63.685
  H       96.937     -14.019      60.652
  H      100.232     -13.228      58.172
  H      100.292     -10.940      59.138
  H       97.713      -9.670      61.385
  H      100.751     -10.044      61.706
  H      100.605      -7.745      62.630
  H       99.006      -6.957      60.481
  H      101.545      -6.794      60.519
  H      101.604      -8.488      59.968
  P       98.517      -6.704      63.991
  C       97.982      -8.396      65.877
  O       97.521      -7.292      65.107
  O       98.221      -5.291      63.607
  O       99.964      -6.828      64.664
  H      100.182      -5.997      65.124
  H       97.225      -8.684      66.576
  H       98.869      -8.116      66.406
  H       98.199      -9.218      65.227

 6  7  8  9  10  11  12  13  14  15  16  27  31  32  33  34  35 0
 6-311+G(2d,p)
 ****
 36  37 0
 6-311+G(2d,p)
 ****
 1  2  3  4  5  17  18  19  20  21  22  23  24  25 0
 3-21G
 ****
 26  28  29  30  38  39  40  41  42  43  44  45 0
 3-21G
 ****


