%nproc=1
%NoSave
%Mem=1900MB
#P OB98/GEN NMR

erre ene a

0 1
  C      -11.553     -27.023      51.992
  O      -11.948     -28.291      52.485
  P      -10.804     -29.268      53.049
  C      -10.957     -30.872      51.002
  O      -10.154     -29.997      51.776
  C      -10.095     -31.954      50.347
  O       -9.394     -31.368      49.220
  C       -9.035     -32.575      51.265
  O       -8.874     -33.938      50.856
  C       -7.783     -31.789      50.923
  O       -6.588     -32.478      51.277
  C       -7.980     -31.581      49.426
  N       -5.313     -29.712      45.557
  C       -5.844     -30.976      45.737
  N       -5.689     -31.842      44.713
  N       -6.470     -31.355      46.820
  C       -6.561     -30.375      47.751
  C       -6.044     -29.102      47.706
  C       -5.388     -28.684      46.488
  O       -4.981     -27.549      46.252
  N       -6.263     -28.429      48.878
  C       -6.980     -29.266      49.599
  N       -7.227     -30.442      48.941
  O      -11.644     -30.426      53.761
  O       -9.806     -28.634      53.965
  H       -5.878     -32.172      50.677
  H      -11.756     -30.245      54.715
  H       -4.858     -29.472      44.692
  H       -7.352     -29.077      50.594
  H       -7.676     -32.456      48.835
  H       -7.789     -30.832      51.458
  H       -5.245     -31.608      43.837
  H       -9.290     -32.523      52.327
  H       -6.096     -32.764      44.805
  H      -10.759     -32.731      49.951
  H      -11.450     -30.296      50.212
  H      -11.729     -31.321      51.636
  P       -8.764     -35.057      51.999
  C       -6.189     -35.185      51.754
  O       -7.289     -34.975      52.615
  O       -8.736     -36.422      51.159
  O       -9.889     -35.061      52.983
  H       -9.163     -37.132      51.674
  H       -5.305     -34.717      52.195
  H       -6.362     -34.748      50.766
  H       -6.007     -36.256      51.650
  H      -12.415     -26.488      51.653
  H      -10.871     -27.153      51.178
  H      -11.074     -26.470      52.773

 3  4  5  6  7  8  9  10  11  12  23  26  30  31 0
 6-311+G(2d,p)
 ****
 33  35  36  37  38 0
 6-311+G(2d,p)
 ****
 1  2  13  14  15  16  17  18  19  20  21  22  24  25 0
 3-21G
 ****
 27  28  29  32  34  39  40  41  42  43  44  45  46  47  48  49 0
 3-21G
 ****


