%nproc=1
%NoSave
%Mem=1900MB
#P OB98/GEN NMR

erre ene a

0 1
  C      -81.544      68.977     217.225
  O      -81.958      67.796     217.927
  P      -81.887      67.663     219.523
  C      -80.103      67.290     221.351
  O      -80.353      67.598     219.982
  C      -78.732      66.630     221.541
  O      -78.788      65.233     221.192
  C      -77.616      67.216     220.684
  O      -77.171      68.459     221.202
  C      -76.585      66.094     220.738
  O      -75.806      66.165     221.946
  C      -77.477      64.839     220.738
  N      -77.539      64.195     219.432
  C      -76.489      63.330     219.112
  O      -75.542      63.183     219.887
  N      -76.523      62.672     217.905
  C      -77.480      62.915     217.066
  N      -77.468      62.227     215.890
  C      -78.560      63.888     217.326
  C      -78.526      64.483     218.518
  O      -82.734      66.563     220.079
  O      -82.382      69.082     220.082
  H      -75.434      65.272     222.087
  H      -82.822      68.949     220.943
  H      -79.321      64.079     216.591
  H      -79.286      65.203     218.796
  H      -77.112      64.107     221.471
  H      -75.883      66.129     219.900
  H      -77.966      67.338     219.652
  H      -78.472      66.701     222.604
  H      -76.718      61.564     215.745
  H      -80.885      66.602     221.696
  H      -78.165      62.341     215.171
  H      -80.163      68.212     221.937
  P      -77.612      69.823     220.485
  C      -76.499      71.532     218.929
  O      -76.462      70.215     219.441
  O      -78.043      70.923     221.400
  O      -78.817      69.372     219.525
  H      -79.448      70.112     219.441
  H      -75.499      71.799     218.578
  H      -76.808      72.247     219.698
  H      -77.195      71.577     218.086
  H      -81.682      68.834     216.174
  H      -80.511      69.168     217.426
  H      -82.131      69.810     217.552

 3  4  5  6  7  8  9  10  11  12  13  23  27  28  29  30  32 0
 6-311+G(2d,p)
 ****
 34  35 0
 6-311+G(2d,p)
 ****
 1  2  14  15  16  17  18  19  20  21  22  24  25  26 0
 3-21G
 ****
 31  33  36  37  38  39  40  41  42  43  44  45  46 0
 3-21G
 ****


