%nproc=1
%NoSave
%Mem=1900MB
#P OB98/GEN NMR

erre ene a

0 1
  C      473.807    -512.474    -171.274
  O      474.794    -513.470    -171.453
  H      473.911    -511.728    -172.067
  H      473.956    -511.984    -170.308
  H      472.802    -512.905    -171.321
  P      474.595    -514.853    -170.667
  C      474.398    -516.179    -172.887
  O      473.788    -515.831    -171.655
  C      473.409    -516.944    -173.772
  O      472.327    -516.040    -174.144
  C      474.023    -517.496    -175.070
  O      473.423    -518.760    -175.363
  C      473.556    -516.492    -176.110
  O      473.548    -517.049    -177.430
  C      472.177    -516.148    -175.571
  N      469.734    -514.330    -179.570
  C      469.930    -515.635    -179.148
  N      469.453    -516.617    -179.944
  N      470.549    -515.951    -178.039
  C      470.957    -514.875    -177.330
  C      470.828    -513.543    -177.631
  C      470.162    -513.203    -178.872
  O      469.974    -512.072    -179.309
  N      471.433    -512.758    -176.680
  C      471.936    -513.619    -175.809
  N      471.675    -514.915    -176.159
  O      473.511    -514.467    -169.551
  O      475.833    -515.431    -170.066
  H      473.338    -516.333    -178.059
  H      473.966    -514.234    -168.719
  H      469.269    -514.145    -180.439
  H      472.515    -513.363    -174.935
  H      471.432    -516.926    -175.783
  H      474.218    -515.619    -176.111
  H      468.942    -516.452    -180.799
  H      475.116    -517.603    -175.036
  H      469.553    -517.574    -179.634
  H      472.962    -517.752    -173.184
  H      475.265    -516.819    -172.692
  H      474.733    -515.273    -173.393
  P      473.937    -520.045    -174.556
  C      471.641    -520.555    -173.436
  O      473.019    -520.235    -173.258
  O      475.333    -519.548    -173.946
  O      474.115    -521.265    -175.402
  H      475.965    -520.297    -173.915
  H      471.170    -520.648    -172.480
  H      471.555    -521.480    -173.967
  H      471.164    -519.777    -173.995

 6  7  8  9  10  11  12  13  14  15  26  29  33  34 0
 6-311+G(2d,p)
 ****
 36  38  39  40  41 0
 6-311+G(2d,p)
 ****
 1  2  3  4  5  16  17  18  19  20  21  22  23  24  25 0
 3-21G
 ****
 27  28  30  31  32  35  37  42  43  44  45  46  47 0
 3-21G
 ****
 48  49 0
 3-21G
 ****


