%nproc=1
%NoSave
%Mem=1900MB
#P OB98/GEN NMR

erre ene a

0 1
  C      364.708     -87.210     153.803
  O      365.234     -86.476     152.694
  P      364.960     -84.898     152.601
  C      362.969     -84.978     150.963
  O      363.407     -84.657     152.275
  C      361.651     -84.263     150.628
  O      361.258     -84.573     149.260
  C      360.494     -84.677     151.553
  O      359.807     -83.562     152.126
  C      359.655     -85.596     150.686
  O      358.303     -85.688     151.112
  C      359.902     -85.045     149.273
  N      359.664     -86.063     148.238
  C      358.366     -86.546     148.132
  O      357.457     -86.219     148.892
  N      358.155     -87.472     147.141
  C      359.107     -88.006     146.329
  O      358.878     -88.875     145.492
  C      360.477     -87.506     146.535
  C      360.685     -86.569     147.467
  O      365.913     -84.124     151.749
  O      365.063     -84.425     154.132
  H      357.793     -86.154     150.413
  H      365.512     -83.555     154.151
  H      357.212     -87.820     147.038
  H      361.263     -87.924     145.925
  H      361.687     -86.191     147.649
  H      359.234     -84.206     149.059
  H      360.078     -86.609     150.744
  H      360.861     -85.234     152.423
  H      361.835     -83.191     150.707
  H      362.820     -86.056     150.887
  H      363.761     -84.729     150.242
  P      359.559     -83.363     153.695
  C      357.332     -84.674     153.926
  O      358.713     -84.608     154.233
  O      359.029     -82.025     154.101
  O      361.014     -83.596     154.330
  H      361.160     -82.951     155.046
  H      356.848     -85.341     154.644
  H      357.206     -85.082     152.922
  H      356.865     -83.683     153.985
  H      364.981     -88.240     153.710
  H      363.642     -87.123     153.815
  H      365.108     -86.816     154.714

 3  4  5  6  7  8  9  10  11  12  13  23  28  29  30  31  32 0
 6-311+G(2d,p)
 ****
 33  34 0
 6-311+G(2d,p)
 ****
 1  2  14  15  16  17  18  19  20  21  22  24  25  26  27 0
 3-21G
 ****
 35  36  37  38  39  40  41  42  43  44  45 0
 3-21G
 ****


