%nproc=1
%NoSave
%Mem=1900MB
#P OB98/GEN NMR

erre ene a

0 1
  C     -110.731     302.927     -74.001
  O     -110.063     302.725     -75.239
  P     -108.552     303.259     -75.364
  C     -107.466     301.334     -74.001
  O     -107.794     302.717     -74.058
  C     -106.016     301.144     -73.567
  O     -105.123     301.552     -74.621
  C     -105.609     301.958     -72.347
  O     -106.000     301.337     -71.134
  C     -104.096     301.948     -72.485
  O     -103.571     300.692     -72.017
  C     -103.913     302.065     -74.002
  N     -100.359     305.651     -74.808
  C     -100.281     304.409     -74.287
  N     -101.276     303.517     -74.095
  C     -102.458     304.037     -74.467
  C     -102.697     305.302     -74.978
  C     -101.577     306.131     -75.159
  N     -101.655     307.386     -75.717
  N     -104.038     305.474     -75.238
  C     -104.599     304.333     -74.902
  N     -103.685     303.428     -74.440
  O     -108.700     304.828     -75.081
  O     -107.892     302.983     -76.671
  H     -102.613     300.699     -72.204
  H     -107.949     305.310     -75.476
  H      -99.287     304.082     -73.995
  H     -105.655     304.114     -74.985
  H     -103.079     301.457     -74.369
  H     -103.611     302.735     -71.900
  H     -105.978     302.990     -72.416
  H     -105.856     300.073     -73.385
  H     -107.602     300.893     -74.993
  H     -100.794     307.839     -75.981
  H     -102.526     307.656     -76.159
  H     -108.143     300.836     -73.301
  P     -106.369     302.310     -69.909
  C     -108.843     302.552     -70.664
  O     -107.603     303.190     -70.425
  O     -105.143     303.337     -69.880
  O     -106.553     301.606     -68.606
  H     -105.031     303.708     -68.985
  H     -109.627     303.313     -70.701
  H     -109.083     301.843     -69.867
  H     -108.812     302.030     -71.625
  H     -111.721     302.525     -74.060
  H     -110.784     303.975     -73.791
  H     -110.192     302.433     -73.220

 3  4  5  6  7  8  9  10  11  12  22  25  29  30  31  32 0
 6-311+G(2d,p)
 ****
 33  36  37 0
 6-311+G(2d,p)
 ****
 1  2  13  14  15  16  17  18  19  20  21  23  24  26 0
 3-21G
 ****
 27  28  34  35  38  39  40  41  42  43  44  45  46  47  48 0
 3-21G
 ****


