%nproc=1
%NoSave
%Mem=1900MB
#P OB98/GEN NMR

erre ene a

0 1
  C       34.385     -11.710    -247.408
  O       35.393     -10.725    -247.284
  H       34.612     -12.535    -246.727
  H       34.358     -12.100    -248.433
  H       33.412     -11.289    -247.142
  P       35.263      -9.437    -248.236
  C       36.627      -7.242    -248.424
  O       36.322      -8.390    -247.638
  C       37.114      -6.100    -247.534
  O       36.031      -5.602    -246.728
  C       38.229      -6.486    -246.566
  O       39.489      -6.444    -247.212
  C       38.097      -5.389    -245.522
  O       38.759      -4.197    -245.993
  C       36.576      -5.154    -245.460
  N       34.156      -4.616    -240.963
  C       34.892      -3.747    -241.693
  N       35.552      -3.975    -242.851
  C       35.390      -5.244    -243.256
  C       34.669      -6.240    -242.607
  C       34.025      -5.888    -241.409
  N       33.275      -6.775    -240.664
  N       34.726      -7.428    -243.314
  C       35.421      -7.134    -244.395
  N       35.879      -5.839    -244.390
  O       33.877      -8.928    -248.446
  O       36.000      -9.961    -249.559
  H       38.356      -3.964    -246.851
  H       36.794     -10.476    -249.326
  H       34.966      -2.741    -241.294
  H       35.608      -7.815    -245.221
  H       36.334      -4.084    -245.359
  H       38.561      -5.652    -244.569
  H       38.036      -7.457    -246.091
  H       37.439      -5.279    -248.190
  H       35.741      -6.924    -248.988
  H       33.018      -6.488    -239.735
  H       33.291      -7.744    -240.934
  H       37.407      -7.530    -249.139
  P       40.840      -6.798    -246.420
  C       43.154      -7.690    -247.110
  O       41.825      -7.402    -247.537
  O       40.644      -7.644    -245.209
  O       41.494      -5.377    -246.094
  H       42.169      -5.476    -245.393
  H       43.715      -8.084    -247.931
  H       43.126      -8.410    -246.319
  H       43.618      -6.792    -246.759

 6  7  8  9  10  11  12  13  14  15  25  28  32  33  34  35 0
 6-311+G(2d,p)
 ****
 36  39  40 0
 6-311+G(2d,p)
 ****
 1  2  3  4  5  16  17  18  19  20  21  22  23  24 0
 3-21G
 ****
 26  27  29  30  31  37  38  41  42  43  44  45  46  47 0
 3-21G
 ****
 48 0
 3-21G
 ****


