%nproc=1
%NoSave
%Mem=1900MB
#P OB98/GEN NMR

erre ene a

0 1
  C     -898.010    -889.300    -893.150
  O     -899.000    -890.290    -892.970
  H     -897.990    -888.960    -894.190
  H     -898.240    -888.440    -892.510
  H     -897.020    -889.690    -892.870
  P     -898.860    -891.620    -893.860
  C     -897.240    -892.700    -892.120
  O     -897.430    -892.240    -893.460
  C     -896.900    -894.190    -892.150
  O     -898.030    -894.950    -892.630
  C     -895.740    -894.540    -893.070
  O     -894.470    -894.310    -892.460
  C     -896.000    -896.010    -893.290
  O     -895.580    -896.770    -892.140
  C     -897.520    -896.050    -893.420
  N     -898.310    -898.520    -897.850
  C     -897.870    -898.950    -896.640
  N     -897.720    -898.230    -895.510
  C     -898.060    -896.950    -895.690
  C     -898.510    -896.370    -896.870
  C     -898.630    -897.210    -897.990
  N     -899.030    -896.770    -899.230
  N     -898.740    -895.020    -896.690
  C     -898.440    -894.790    -895.420
  N     -897.990    -895.930    -894.800
  O     -898.610    -891.070    -895.340
  O     -900.000    -892.580    -893.780
  H     -894.620    -896.610    -892.030
  H     -898.740    -891.780    -895.990
  H     -897.630    -900.000    -896.580
  H     -898.520    -893.840    -894.920
  H     -897.960    -896.980    -893.020
  H     -895.440    -896.430    -894.150
  H     -895.820    -894.020    -894.040
  H     -896.700    -894.510    -891.120
  H     -898.160    -892.540    -891.560
  H     -898.940    -897.410    -900.000
  H     -899.140    -895.780    -899.390
  H     -896.430    -892.130    -891.660
  P     -893.200    -894.220    -893.440
  C     -892.680    -891.710    -892.940
  O     -893.100    -892.690    -893.910
  O     -893.700    -894.970    -894.750
  O     -891.940    -894.830    -892.880
  H     -892.960    -895.420    -895.200
  H     -892.661    -890.742    -893.396
  H     -891.701    -891.956    -892.585
  H     -893.366    -891.704    -892.119

 6  7  8  9  10  11  12  13  14  15  25  28  32  33  34  35 0
 6-311+G(2d,p)
 ****
 36  39  40 0
 6-311+G(2d,p)
 ****
 1  2  3  4  5  16  17  18  19  20  21  22  23  24 0
 3-21G
 ****
 26  27  29  30  31  37  38  41  42  43  44  45  46  47 0
 3-21G
 ****
 48 0
 3-21G
 ****


