%nproc=1
%NoSave
%Mem=1900MB
#P OB98/GEN NMR

erre ene a

0 1
  C       67.725     328.533    -417.648
  O       66.355     328.505    -417.314
  H       68.255     329.128    -416.900
  H       67.855     328.996    -418.631
  H       68.150     327.524    -417.660
  P       65.410     327.423    -418.021
  C       63.979     329.344    -418.989
  O       63.984     328.125    -418.264
  C       62.758     330.201    -418.631
  O       61.555     329.408    -418.788
  C       62.824     330.628    -417.162
  O       62.153     331.864    -416.934
  C       62.060     329.519    -416.450
  O       61.559     329.911    -415.175
  C       60.981     329.202    -417.486
  N       57.830     326.000    -415.077
  C       58.153     327.303    -414.769
  N       57.576     327.818    -413.659
  N       58.980     328.037    -415.472
  C       59.539     327.365    -416.512
  C       59.317     326.069    -416.907
  C       58.373     325.280    -416.142
  O       58.060     324.111    -416.355
  N       60.082     325.731    -417.993
  C       60.772     326.823    -418.257
  N       60.464     327.849    -417.391
  O       65.086     326.375    -416.849
  O       65.990     326.738    -419.223
  H       61.116     330.765    -415.287
  H       64.860     325.509    -417.225
  H       57.174     325.485    -414.514
  H       61.487     326.933    -419.060
  H       60.129     329.887    -417.375
  H       62.752     328.686    -416.286
  H       57.076     327.244    -412.991
  H       63.849     330.706    -416.801
  H       58.013     328.649    -413.260
  H       62.674     331.046    -419.317
  H       63.962     329.084    -420.054
  H       64.903     329.896    -418.807
  P       63.063     333.177    -416.789
  C       62.331     333.764    -414.338
  O       62.369     334.135    -415.705
  O       62.842     333.943    -418.181
  O       64.500     332.893    -416.529
  H       63.637     333.845    -418.745
  H       61.831     334.525    -413.776
  H       63.330     333.648    -413.972
  H       61.803     332.839    -414.234

 6  7  8  9  10  11  12  13  14  15  26  29  33  34 0
 6-311+G(2d,p)
 ****
 36  38  39  40  41 0
 6-311+G(2d,p)
 ****
 1  2  3  4  5  16  17  18  19  20  21  22  23  24  25 0
 3-21G
 ****
 27  28  30  31  32  35  37  42  43  44  45  46  47 0
 3-21G
 ****
 48  49 0
 3-21G
 ****


