%nproc=1
%NoSave
%Mem=1900MB
#P OB98/GEN NMR

erre ene a

0 1
  C      159.852     310.137    -224.681
  O      159.326     311.157    -223.848
  P      158.700     312.450    -224.586
  C      159.971     313.939    -222.892
  O      158.755     313.693    -223.548
  C      159.912     315.225    -222.042
  O      159.584     316.369    -222.872
  C      158.869     315.164    -220.924
  O      159.376     315.917    -219.821
  C      157.678     315.896    -221.518
  O      156.773     316.349    -220.514
  C      158.409     316.991    -222.299
  N      154.401     320.037    -223.209
  C      154.995     319.629    -222.045
  N      156.048     318.801    -221.898
  C      156.510     318.409    -223.105
  C      156.021     318.735    -224.347
  C      154.901     319.576    -224.388
  N      154.279     319.961    -225.553
  N      156.731     318.082    -225.343
  C      157.668     317.403    -224.689
  N      157.582     317.583    -223.346
  O      157.140     312.099    -224.684
  O      159.288     312.720    -225.927
  H      156.030     316.809    -220.956
  H      156.904     311.903    -225.602
  H      154.561     320.020    -221.137
  H      158.393     316.739    -225.160
  H      158.739     317.827    -221.650
  H      157.145     315.227    -222.201
  H      158.596     314.152    -220.599
  H      160.918     315.414    -221.608
  H      160.790     314.054    -223.637
  H      153.454     320.547    -225.472
  H      154.609     319.588    -226.425
  H      160.246     313.083    -222.286
  P      160.436     315.183    -218.852
  C      158.906     315.367    -216.748
  O      160.142     315.707    -217.377
  O      161.823     315.865    -219.255
  O      160.447     313.706    -219.017
  H      162.567     315.259    -219.056
  H      159.108     315.131    -215.699
  H      158.435     314.503    -217.226
  H      158.239     316.226    -216.810
  H      160.233     309.342    -224.074
  H      160.642     310.538    -225.281
  H      159.078     309.761    -225.316

 3  4  5  6  7  8  9  10  11  12  22  25  29  30  31  32 0
 6-311+G(2d,p)
 ****
 33  36  37 0
 6-311+G(2d,p)
 ****
 1  2  13  14  15  16  17  18  19  20  21  23  24  26 0
 3-21G
 ****
 27  28  34  35  38  39  40  41  42  43  44  45  46  47  48 0
 3-21G
 ****


