%nproc=1
%NoSave
%Mem=1900MB
#P OB98/GEN NMR

erre ene a

0 1
  C      466.398    -740.639    1216.498
  O      465.298    -739.938    1215.876
  P      465.127    -740.056    1214.272
  C      463.454    -742.046    1214.559
  O      464.639    -741.545    1213.919
  C      462.234    -741.765    1213.694
  O      462.253    -742.524    1212.470
  C      460.928    -742.135    1214.358
  O      460.475    -741.112    1215.245
  C      459.989    -742.226    1213.140
  O      459.567    -740.898    1212.756
  C      460.889    -742.844    1212.086
  N      457.646    -746.800    1212.284
  C      457.463    -745.466    1212.492
  N      458.387    -744.479    1212.417
  C      459.582    -744.997    1212.119
  C      459.922    -746.319    1211.897
  C      458.879    -747.255    1211.985
  N      459.068    -748.610    1211.785
  N      461.268    -746.450    1211.622
  C      461.748    -745.204    1211.665
  N      460.758    -744.310    1211.980
  O      466.633    -740.012    1213.753
  O      464.304    -738.949    1213.693
  H      458.804    -741.013    1212.155
  H      466.671    -739.555    1212.909
  H      456.430    -745.149    1212.701
  H      462.770    -744.923    1211.469
  H      460.711    -742.428    1211.084
  H      459.067    -742.795    1213.368
  H      460.994    -743.118    1214.853
  H      462.220    -740.705    1213.439
  H      463.354    -741.576    1215.539
  H      458.266    -749.215    1211.834
  H      459.988    -748.957    1211.526
  H      463.595    -743.123    1214.737
  P      461.138    -741.055    1216.713
  C      462.799    -739.022    1216.487
  O      462.627    -740.460    1216.484
  O      461.418    -742.602    1217.046
  O      460.313    -740.385    1217.749
  H      461.363    -742.728    1218.002
  H      463.846    -738.820    1216.613
  H      462.237    -738.569    1217.298
  H      462.492    -738.624    1215.527
  H      466.379    -740.467    1217.554
  H      467.322    -740.282    1216.094
  H      466.307    -741.688    1216.306

 3  4  5  6  7  8  9  10  11  12  22  25  29  30  31  32 0
 6-311+G(2d,p)
 ****
 33  36  37 0
 6-311+G(2d,p)
 ****
 1  2  13  14  15  16  17  18  19  20  21  23  24  26 0
 3-21G
 ****
 27  28  34  35  38  39  40  41  42  43  44  45  46  47  48 0
 3-21G
 ****


