%nproc=1
%NoSave
%Mem=1900MB
#P OB98/GEN NMR

erre ene a

0 1
  C      -25.218      34.760      12.721
  O      -24.323      33.792      13.232
  H      -25.794      35.178      13.551
  H      -25.909      34.297      12.011
  H      -24.665      35.565      12.232
  P      -23.426      33.015      12.152
  C      -21.705      34.952      12.140
  O      -22.581      34.138      11.375
  C      -20.886      35.859      11.226
  O      -20.031      36.728      12.000
  C      -19.984      35.115      10.247
  O      -20.705      34.719       9.093
  C      -18.933      36.175       9.949
  O      -19.420      37.127       8.978
  C      -18.752      36.842      11.320
  N      -14.883      37.926      14.375
  C      -15.698      38.762      13.638
  N      -15.425      40.084      13.701
  N      -16.685      38.342      12.893
  C      -16.806      36.993      12.879
  C      -16.062      36.059      13.562
  C      -15.006      36.543      14.425
  O      -14.305      35.861      15.165
  N      -16.503      34.787      13.302
  C      -17.486      34.951      12.438
  N      -17.705      36.272      12.146
  O      -24.493      32.535      11.056
  O      -22.641      31.863      12.680
  H      -20.197      37.585       9.344
  H      -24.236      31.649      10.738
  H      -14.157      38.308      14.955
  H      -18.074      34.152      12.006
  H      -18.529      37.911      11.227
  H      -18.030      35.737       9.523
  H      -14.529      40.431      14.008
  H      -19.504      34.255      10.728
  H      -15.976      40.686      13.103
  H      -21.591      36.503      10.684
  H      -21.030      34.307      12.711
  H      -22.292      35.561      12.834
  P      -20.062      33.600       8.144
  C      -21.817      31.820       8.845
  O      -20.442      32.162       8.748
  O      -18.495      33.733       8.448
  O      -20.341      33.780       6.691
  H      -18.050      34.177       7.703
  H      -21.912      30.840       9.263
  H      -22.258      31.837       7.870
  H      -22.317      32.526       9.475

 6  7  8  9  10  11  12  13  14  15  26  29  33  34 0
 6-311+G(2d,p)
 ****
 36  38  39  40  41 0
 6-311+G(2d,p)
 ****
 1  2  3  4  5  16  17  18  19  20  21  22  23  24  25 0
 3-21G
 ****
 27  28  30  31  32  35  37  42  43  44  45  46  47 0
 3-21G
 ****
 48  49 0
 3-21G
 ****


