%nproc=1
%NoSave
%Mem=1900MB
#P OB98/GEN NMR

erre ene a

0 1
  C     -372.687     141.186     271.413
  O     -372.694     139.783     271.682
  P     -373.984     139.135     272.376
  C     -372.519     138.002     274.174
  O     -373.516     137.820     273.172
  C     -371.794     136.685     274.460
  O     -370.857     136.350     273.409
  C     -370.974     136.718     275.735
  O     -371.801     136.650     276.883
  C     -370.051     135.531     275.533
  O     -370.705     134.300     275.896
  C     -369.803     135.563     274.006
  N     -368.488     136.078     273.646
  C     -367.497     135.120     273.430
  O     -367.741     133.921     273.583
  N     -366.237     135.550     273.061
  C     -366.001     136.808     272.929
  N     -364.744     137.181     272.561
  C     -367.021     137.858     273.161
  C     -368.227     137.426     273.521
  O     -375.172     138.956     271.499
  O     -374.295     140.165     273.571
  H     -370.149     133.585     275.532
  H     -375.257     140.162     273.748
  H     -366.776     138.903     273.028
  H     -369.039     138.119     273.716
  H     -369.900     134.558     273.579
  H     -369.142     135.599     276.143
  H     -370.376     137.650     275.770
  H     -372.545     135.892     274.527
  H     -364.062     136.451     272.416
  H     -372.981     138.379     275.090
  H     -364.480     138.137     272.379
  H     -371.817     138.773     273.833
  P     -371.681     137.829     277.964
  C     -371.600     136.422     280.143
  O     -372.342     137.310     279.330
  O     -372.740     138.914     277.436
  O     -370.320     138.421     278.096
  H     -372.416     139.817     277.637
  H     -372.029     136.414     281.152
  H     -370.552     136.731     280.216
  H     -371.657     135.409     279.731
  H     -371.760     141.456     270.951
  H     -372.799     141.726     272.330
  H     -373.496     141.427     270.756

 3  4  5  6  7  8  9  10  11  12  13  23  27  28  29  30  32 0
 6-311+G(2d,p)
 ****
 34  35 0
 6-311+G(2d,p)
 ****
 1  2  14  15  16  17  18  19  20  21  22  24  25  26 0
 3-21G
 ****
 31  33  36  37  38  39  40  41  42  43  44  45  46 0
 3-21G
 ****


