%nproc=1
%NoSave
%Mem=1900MB
#P OB98/GEN NMR

erre ene a

0 1
  C     -229.046    -236.763     590.361
  O     -229.624    -237.473     589.284
  P     -228.890    -238.676     588.531
  C     -229.484    -240.316     590.461
  O     -228.459    -239.767     589.636
  C     -229.641    -241.836     590.295
  O     -229.991    -242.131     588.926
  C     -228.305    -242.534     590.561
  O     -227.910    -242.836     591.891
  C     -228.278    -243.719     589.601
  O     -228.667    -244.945     590.225
  C     -229.288    -243.321     588.522
  N     -228.669    -245.093     583.813
  C     -229.589    -245.477     584.768
  N     -230.297    -246.594     584.498
  N     -229.773    -244.832     585.897
  C     -228.923    -243.792     586.066
  C     -227.980    -243.305     585.179
  C     -227.818    -244.006     583.929
  O     -226.957    -243.750     583.083
  N     -227.251    -242.283     585.722
  C     -227.717    -242.168     586.947
  N     -228.704    -243.086     587.217
  O     -227.906    -238.306     587.469
  O     -230.136    -239.403     587.807
  H     -229.636    -244.986     590.220
  H     -229.809    -239.756     586.953
  H     -228.521    -245.675     582.997
  H     -227.357    -241.460     587.686
  H     -230.046    -244.100     588.393
  H     -227.260    -243.877     589.213
  H     -230.079    -247.196     583.718
  H     -227.520    -241.863     590.201
  H     -230.850    -246.997     585.246
  H     -230.465    -242.216     590.902
  H     -230.418    -239.799     590.213
  H     -229.262    -240.091     591.509
  P     -226.412    -243.013     592.418
  C     -226.410    -240.981     593.976
  O     -225.846    -241.572     592.817
  O     -225.568    -243.380     591.105
  O     -226.235    -244.069     593.460
  H     -224.750    -243.840     591.360
  H     -226.181    -239.916     593.977
  H     -225.969    -241.440     594.869
  H     -227.496    -241.122     593.994
  H     -229.726    -236.008     590.696
  H     -228.135    -236.304     590.038
  H     -228.840    -237.439     591.164

 3  4  5  6  7  8  9  10  11  12  23  26  30  31 0
 6-311+G(2d,p)
 ****
 33  35  36  37  38 0
 6-311+G(2d,p)
 ****
 1  2  13  14  15  16  17  18  19  20  21  22  24  25 0
 3-21G
 ****
 27  28  29  32  34  39  40  41  42  43  44  45  46  47  48  49 0
 3-21G
 ****


