%nproc=1
%NoSave
%Mem=1900MB
#P OB98/GEN NMR

erre ene a

0 1
  C       98.170     -68.246      11.609
  O       98.559     -68.130      12.959
  P      100.068     -67.905      13.429
  C      100.083     -70.306      14.468
  O      100.749     -69.339      13.664
  C      100.843     -71.642      14.461
  O      100.945     -72.110      13.089
  C      102.279     -71.477      14.983
  O      102.711     -72.528      15.842
  C      103.081     -71.245      13.709
  O      104.471     -71.507      13.853
  C      102.337     -72.128      12.711
  N      105.429     -71.448       8.734
  C      105.671     -72.121       9.914
  N      106.950     -72.498      10.135
  N      104.744     -72.361      10.810
  C      103.540     -71.824      10.502
  C      103.183     -71.140       9.363
  C      104.208     -70.911       8.367
  O      104.067     -70.221       7.356
  N      101.892     -70.681       9.424
  C      101.476     -71.058      10.619
  N      102.453     -71.725      11.322
  O      100.296     -66.841      14.455
  O      100.769     -67.419      12.058
  H      104.912     -71.217      13.031
  H      101.467     -66.776      12.305
  H      106.206     -71.222       8.117
  H      100.496     -70.850      11.033
  H      102.684     -73.163      12.754
  H      102.986     -70.189      13.445
  H      107.705     -72.196       9.537
  H      102.357     -70.587      15.617
  H      107.196     -72.762      11.085
  H      100.271     -72.386      15.027
  H       99.086     -70.439      14.027
  H       99.956     -69.940      15.487
  P      103.381     -72.431      17.288
  C      105.670     -73.004      16.277
  O      104.944     -72.117      17.107
  O      103.384     -73.928      17.847
  O      102.679     -71.522      18.242
  H      103.173     -73.921      18.801
  H      106.740     -72.854      16.453
  H      105.450     -72.787      15.225
  H      105.414     -74.046      16.498
  H       97.111     -68.391      11.554
  H       98.668     -69.082      11.165
  H       98.435     -67.353      11.083

 3  4  5  6  7  8  9  10  11  12  23  26  30  31 0
 6-311+G(2d,p)
 ****
 33  35  36  37  38 0
 6-311+G(2d,p)
 ****
 1  2  13  14  15  16  17  18  19  20  21  22  24  25 0
 3-21G
 ****
 27  28  29  32  34  39  40  41  42  43  44  45  46  47  48  49 0
 3-21G
 ****


