%nproc=1
%NoSave
%Mem=1900MB
#P OB98/GEN NMR

erre ene a

0 1
  C      -23.833     -97.809     109.534
  O      -24.232     -98.277     110.810
  P      -25.718     -97.947     111.308
  C      -24.960     -95.860     112.655
  O      -25.794     -96.375     111.627
  C      -25.750     -94.943     113.590
  O      -25.844     -93.617     113.004
  C      -27.180     -95.424     113.857
  O      -27.558     -95.069     115.195
  C      -28.016     -94.585     112.913
  O      -29.369     -94.485     113.359
  C      -27.242     -93.268     112.936
  N      -29.535     -89.076     111.293
  C      -29.237     -89.464     112.584
  N      -29.691     -88.663     113.573
  N      -28.551     -90.536     112.880
  C      -28.168     -91.244     111.789
  C      -28.390     -90.953     110.461
  C      -29.160     -89.769     110.150
  O      -29.483     -89.386     109.030
  N      -27.816     -91.889     109.641
  C      -27.284     -92.769     110.465
  N      -27.504     -92.441     111.778
  O      -25.770     -98.627     112.757
  O      -26.801     -98.475     110.431
  H      -29.826     -93.884     112.742
  H      -26.299     -99.445     112.719
  H      -30.077     -88.246     111.118
  H      -26.759     -93.667     110.167
  H      -27.478     -92.679     113.831
  H      -28.019     -95.034     111.913
  H      -30.281     -87.860     113.415
  H      -27.332     -96.498     113.709
  H      -29.524     -88.948     114.529
  H      -25.196     -94.839     114.529
  H      -24.146     -95.292     112.202
  H      -24.524     -96.689     113.222
  P      -28.265     -96.226     116.056
  C      -30.632     -95.505     115.249
  O      -29.657     -96.525     115.325
  O      -28.693     -95.474     117.401
  O      -27.397     -97.412     116.317
  H      -28.759     -96.110     118.137
  H      -30.801     -95.254     114.198
  H      -30.330     -94.601     115.786
  H      -31.566     -95.874     115.681
  H      -22.823     -98.106     109.345
  H      -23.901     -96.742     109.508
  H      -24.473     -98.226     108.785

 3  4  5  6  7  8  9  10  11  12  23  26  30  31 0
 6-311+G(2d,p)
 ****
 33  35  36  37  38 0
 6-311+G(2d,p)
 ****
 1  2  13  14  15  16  17  18  19  20  21  22  24  25 0
 3-21G
 ****
 27  28  29  32  34  39  40  41  42  43  44  45  46  47  48  49 0
 3-21G
 ****


