%nproc=1
%NoSave
%Mem=1900MB
#P OB98/GEN NMR

erre ene a

0 1
  C      -61.665     -92.256    -391.718
  O      -60.626     -91.306    -391.556
  H      -61.984     -92.596    -390.729
  H      -61.308     -93.119    -392.286
  H      -62.520     -91.804    -392.228
  P      -59.979     -90.656    -392.867
  C      -59.588     -88.285    -391.916
  O      -58.992     -89.502    -392.350
  C      -58.641     -87.542    -390.978
  O      -58.454     -88.291    -389.754
  C      -57.242     -87.318    -391.557
  O      -57.241     -86.197    -392.426
  C      -56.445     -87.088    -390.277
  O      -56.692     -85.755    -389.791
  C      -57.074     -88.124    -389.330
  N      -52.962     -90.782    -387.977
  C      -53.234     -89.434    -387.840
  N      -52.252     -88.674    -387.300
  N      -54.360     -88.874    -388.211
  C      -55.217     -89.741    -388.799
  C      -55.056     -91.090    -389.009
  C      -53.833     -91.711    -388.541
  O      -53.554     -92.902    -388.630
  N      -56.115     -91.628    -389.697
  C      -56.938     -90.607    -389.866
  N      -56.427     -89.434    -389.350
  O      -60.941     -90.196    -393.925
  O      -58.981     -91.784    -393.410
  H      -56.456     -85.151    -390.521
  H      -59.420     -92.360    -394.065
  H      -52.070     -91.141    -387.685
  H      -57.906     -90.661    -390.348
  H      -57.087     -87.785    -388.291
  H      -55.373     -87.192    -390.417
  H      -51.290     -88.992    -387.260
  H      -56.854     -88.230    -392.048
  H      -52.414     -87.679    -387.228
  H      -59.112     -86.584    -390.705
  H      -60.517     -88.538    -391.394
  H      -59.829     -87.654    -392.772
  P      -57.142     -86.384    -394.020
  C      -58.656     -84.322    -394.384
  O      -57.383     -84.921    -394.624
  O      -58.032     -87.451    -394.586
  O      -55.588     -86.626    -394.299
  H      -55.315     -87.579    -394.251
  H      -58.686     -83.353    -394.838
  H      -58.812     -84.227    -393.330
  H      -59.424     -84.937    -394.805

 6  7  8  9  10  11  12  13  14  15  26  29  33  34 0
 6-311+G(2d,p)
 ****
 36  38  39  40  41 0
 6-311+G(2d,p)
 ****
 1  2  3  4  5  16  17  18  19  20  21  22  23  24  25 0
 3-21G
 ****
 27  28  30  31  32  35  37  42  43  44  45  46  47 0
 3-21G
 ****
 48  49 0
 3-21G
 ****


