%nproc=1
%NoSave
%Mem=1900MB
#P OB98/GEN NMR

erre ene a

0 1
  C     -587.099    -897.320    -893.870
  O     -585.743    -897.790    -893.720
  P     -585.081    -898.700    -894.880
  C     -582.908    -897.480    -895.710
  O     -584.308    -897.750    -895.900
  C     -582.681    -896.010    -895.370
  O     -583.395    -895.640    -894.160
  C     -581.245    -895.620    -895.140
  O     -580.517    -895.520    -896.350
  C     -581.409    -894.300    -894.410
  O     -581.594    -893.210    -895.340
  C     -582.667    -894.530    -893.580
  N     -582.368    -894.780    -892.150
  C     -581.873    -893.700    -891.430
  O     -581.604    -892.600    -891.940
  N     -581.626    -893.940    -890.110
  C     -581.774    -895.120    -889.450
  O     -581.527    -895.290    -888.270
  C     -582.253    -896.260    -890.310
  C     -582.517    -896.040    -891.580
  O     -586.381    -899.140    -895.720
  O     -584.339    -899.900    -894.380
  H     -581.452    -892.380    -894.810
  H     -586.207    -900.000    -896.150
  H     -581.288    -893.160    -889.560
  H     -582.367    -897.230    -889.840
  H     -582.865    -896.850    -892.210
  H     -583.328    -893.680    -893.640
  H     -580.520    -894.050    -893.820
  H     -580.788    -896.350    -894.460
  H     -583.135    -895.410    -896.210
  H     -582.383    -897.740    -896.620
  H     -582.549    -898.130    -894.890
  P     -579.769    -896.870    -896.880
  C     -580.909    -896.780    -899.230
  O     -580.739    -897.460    -898.010
  O     -579.978    -897.830    -895.620
  O     -578.354    -896.600    -897.270
  H     -580.820    -897.650    -895.130
  H     -579.990    -896.240    -899.530
  H     -581.749    -896.070    -899.140
  H     -581.163    -897.500    -900.000
  H     -587.371    -896.737    -893.015
  H     -587.759    -898.158    -893.956
  H     -587.172    -896.717    -894.751

 3  4  5  6  7  8  9  10  11  12  13  23  28  29  30  31  32 0
 6-311+G(2d,p)
 ****
 33  34 0
 6-311+G(2d,p)
 ****
 1  2  14  15  16  17  18  19  20  21  22  24  25  26 0
 3-21G
 ****
 27  35  36  37  38  39  40  41  42  43  44  45 0
 3-21G
 ****


