%nproc=1
%NoSave
%Mem=1900MB
#P OB98/GEN NMR

erre ene a

0 1
  C      -97.089     283.868     237.240
  O      -97.455     285.186     236.880
  H      -96.157     283.880     237.814
  H      -97.880     283.437     237.861
  H      -96.969     283.250     236.342
  P      -96.404     285.996     235.974
  C      -96.866     285.470     233.478
  O      -97.145     286.320     234.584
  C      -98.082     285.388     232.555
  O      -99.228     284.979     233.357
  C      -98.431     286.715     231.858
  O      -98.601     286.514     230.446
  C      -99.773     287.111     232.456
  O     -100.623     287.771     231.521
  C     -100.343     285.768     232.902
  N     -104.448     288.425     234.357
  C     -103.913     288.208     233.134
  N     -102.875     287.409     232.803
  C     -102.403     286.773     233.891
  C     -102.860     286.877     235.194
  C     -103.923     287.766     235.416
  N     -104.437     288.031     236.669
  N     -102.113     286.073     236.045
  C     -101.197     285.527     235.270
  N     -101.317     285.929     233.965
  O      -95.327     284.875     235.575
  O      -95.763     287.156     236.656
  H     -100.940     287.096     230.893
  H      -94.456     285.140     235.928
  H     -104.375     288.751     232.313
  H     -100.393     284.877     235.605
  H     -100.823     285.225     232.075
  H      -99.600     287.777     233.307
  H      -97.676     287.492     232.018
  H      -97.907     284.600     231.814
  H      -96.624     284.464     233.841
  H     -105.115     288.766     236.752
  H     -103.973     287.628     237.476
  H      -96.001     285.866     232.933
  P      -97.752     287.489     229.480
  C      -95.582     286.194     228.866
  O      -96.902     286.573     228.473
  O      -96.660     288.114     230.469
  O      -98.577     288.553     228.836
  H      -96.713     289.091     230.454
  H      -95.142     285.590     228.101
  H      -95.628     285.637     229.778
  H      -94.988     287.072     229.013

 6  7  8  9  10  11  12  13  14  15  25  28  32  33  34  35 0
 6-311+G(2d,p)
 ****
 36  39  40 0
 6-311+G(2d,p)
 ****
 1  2  3  4  5  16  17  18  19  20  21  22  23  24 0
 3-21G
 ****
 26  27  29  30  31  37  38  41  42  43  44  45  46  47  48 0
 3-21G
 ****


