%nproc=1
%NoSave
%Mem=1900MB
#P OB98/GEN NMR

erre ene a

0 1
  C      142.556      79.983     179.390
  O      142.819      81.072     178.498
  P      144.037      80.903     177.465
  C      146.633      81.227     177.670
  O      145.363      81.220     178.311
  C      147.600      82.134     178.427
  O      147.207      83.521     178.295
  C      147.653      81.872     179.927
  O      148.377      80.685     180.219
  C      148.306      83.158     180.422
  O      149.731      83.101     180.234
  C      147.695      84.213     179.471
  N      146.638      85.000     180.101
  C      147.065      85.976     180.999
  O      148.251      86.161     181.278
  N      146.077      86.722     181.584
  C      144.734      86.571     181.384
  O      143.894      87.277     181.931
  C      144.342      85.491     180.464
  C      145.297      84.766     179.873
  O      143.838      82.187     176.538
  O      144.018      79.595     176.751
  H      143.507      82.964     177.025
  H      150.044      82.317     180.727
  H      146.366      87.441     182.228
  H      143.282      85.328     180.301
  H      145.028      83.965     179.189
  H      148.470      84.902     179.123
  H      148.125      83.339     181.488
  H      146.637      81.793     180.328
  H      148.598      82.014     177.986
  H      146.529      81.590     176.643
  H      147.009      80.200     177.622
  P      147.513      79.346     180.441
  C      146.029      78.444     182.398
  O      146.939      79.420     181.937
  O      148.671      78.240     180.521
  O      146.498      79.102     179.372
  H      149.424      78.518     181.073
  H      146.034      78.454     183.493
  H      146.304      77.444     182.057
  H      145.024      78.692     182.047
  H      141.725      80.229     180.017
  H      143.419      79.802     179.996
  H      142.328      79.105     178.823

 3  4  5  6  7  8  9  10  11  12  13  24  28  29  30  31  32 0
 6-311+G(2d,p)
 ****
 33  34 0
 6-311+G(2d,p)
 ****
 1  2  14  15  16  17  18  19  20  21  22  23  25  26  27 0
 3-21G
 ****
 35  36  37  38  39  40  41  42  43  44  45 0
 3-21G
 ****


