%nproc=1
%NoSave
%Mem=1900MB
#P OB98/GEN NMR

erre ene a

0 1
  C     -164.554     302.762     212.881
  O     -165.498     301.712     212.891
  H     -164.201     302.907     211.857
  H     -163.700     302.503     213.511
  H     -165.009     303.693     213.232
  P     -166.271     301.426     214.269
  C     -167.992     303.360     214.481
  O     -166.717     302.858     214.850
  C     -168.906     303.449     215.704
  O     -168.355     304.426     216.627
  C     -170.338     303.872     215.371
  O     -171.237     303.141     216.209
  C     -170.381     305.343     215.749
  O     -171.695     305.797     216.062
  C     -169.389     305.387     216.920
  N     -168.842     306.731     217.104
  C     -169.696     307.684     217.665
  O     -170.851     307.382     217.967
  N     -169.246     308.971     217.814
  C     -168.074     309.300     217.364
  N     -167.696     310.597     217.513
  C     -167.166     308.341     216.705
  C     -167.606     307.085     216.616
  O     -165.102     300.977     215.264
  O     -167.370     300.421     214.188
  H     -171.630     306.718     216.391
  H     -165.426     300.334     215.921
  H     -166.209     308.667     216.319
  H     -167.010     306.312     216.140
  H     -169.877     305.074     217.852
  H     -170.004     305.946     214.912
  H     -170.606     303.706     214.324
  H     -168.892     302.481     216.219
  H     -168.356     311.230     217.956
  H     -168.445     302.682     213.749
  H     -166.827     310.974     217.162
  H     -167.875     304.347     214.018
  P     -171.840     301.779     215.613
  C     -170.495     300.113     217.083
  O     -170.734     300.631     215.779
  O     -171.872     302.051     214.035
  O     -173.193     301.439     216.143
  H     -172.793     302.166     213.736
  H     -169.736     299.360     217.034
  H     -171.397     299.686     217.468
  H     -170.172     300.904     217.727

 6  7  8  9  10  11  12  13  14  15  16  26  30  31  32  33  35 0
 6-311+G(2d,p)
 ****
 37  38 0
 6-311+G(2d,p)
 ****
 1  2  3  4  5  17  18  19  20  21  22  23  24  25 0
 3-21G
 ****
 27  28  29  34  36  39  40  41  42  43  44  45  46 0
 3-21G
 ****


