%nproc=1
%NoSave
%Mem=1900MB
#P OB98/GEN NMR

erre ene a

0 1
  C        3.565      18.853      48.677
  O        3.667      20.251      48.861
  H        4.390      18.344      49.180
  H        2.622      18.507      49.110
  H        3.574      18.611      47.609
  P        5.005      20.955      48.324
  C        6.117      20.773      50.669
  O        6.174      20.430      49.291
  C        7.532      21.001      51.190
  O        7.488      21.475      52.556
  C        8.389      19.740      51.216
  O        8.962      19.444      49.954
  C        9.453      20.142      52.223
  O       10.401      21.028      51.601
  C        8.619      20.902      53.267
  N        9.937      17.632      56.982
  C       10.677      18.357      56.114
  N       10.251      19.221      55.170
  C        8.912      19.311      55.176
  C        8.027      18.640      56.006
  C        8.590      17.758      56.944
  N        7.840      16.994      57.809
  N        6.723      18.976      55.698
  C        6.823      19.848      54.715
  N        8.124      20.058      54.342
  O        4.834      22.485      48.764
  O        5.289      20.793      46.868
  H        9.997      21.917      51.592
  H        5.481      23.047      48.296
  H       11.752      18.223      56.185
  H        5.989      20.343      54.234
  H        9.174      21.727      53.731
  H       10.015      19.288      52.608
  H        7.832      18.883      51.610
  H        8.002      21.784      50.581
  H        5.649      19.952      51.224
  H        8.324      16.286      58.338
  H        6.837      16.969      57.690
  H        5.518      21.680      50.795
  P        9.143      17.896      49.567
  C       11.543      17.885      50.563
  O       10.244      17.303      50.574
  O        9.919      17.965      48.171
  O        7.867      17.125      49.470
  H        9.669      17.216      47.596
  H       12.162      17.389      51.281
  H       11.471      18.923      50.811
  H       11.973      17.780      49.589

 6  7  8  9  10  11  12  13  14  15  25  28  32  33  34  35 0
 6-311+G(2d,p)
 ****
 36  39  40 0
 6-311+G(2d,p)
 ****
 1  2  3  4  5  16  17  18  19  20  21  22  23  24 0
 3-21G
 ****
 26  27  29  30  31  37  38  41  42  43  44  45  46  47 0
 3-21G
 ****
 48 0
 3-21G
 ****


