%nproc=1
%NoSave
%Mem=1900MB
#P OB98/GEN NMR

erre ene a

0 1
  C     -162.062    -107.602     -24.372
  O     -160.840    -108.176     -23.894
  P     -160.373    -109.548     -24.580
  C     -158.513    -108.499     -26.059
  O     -158.832    -109.400     -25.006
  C     -157.019    -108.177     -26.038
  O     -156.650    -107.417     -24.866
  C     -156.132    -109.419     -26.007
  O     -156.086    -110.042     -27.282
  C     -154.811    -108.809     -25.550
  O     -154.139    -108.178     -26.652
  C     -155.276    -107.746     -24.545
  N     -152.926    -106.996     -20.063
  C     -152.789    -106.397     -21.266
  N     -153.450    -106.656     -22.414
  C     -154.347    -107.640     -22.231
  C     -154.606    -108.339     -21.062
  C     -153.842    -107.983     -19.936
  N     -153.976    -108.606     -18.711
  N     -155.597    -109.279     -21.267
  C     -155.916    -109.163     -22.541
  N     -155.194    -108.178     -23.163
  O     -161.155    -109.551     -25.977
  O     -160.690    -110.763     -23.768
  H     -153.904    -108.882     -27.293
  H     -161.867    -110.216     -25.958
  H     -152.043    -105.609     -21.313
  H     -156.654    -109.766     -23.054
  H     -154.696    -106.820     -24.629
  H     -154.124    -109.551     -25.128
  H     -156.501    -110.126     -25.255
  H     -156.787    -107.574     -26.931
  H     -159.091    -107.578     -25.960
  H     -153.338    -108.346     -17.978
  H     -154.594    -109.399     -18.634
  H     -158.806    -108.954     -27.012
  P     -155.958    -111.643     -27.317
  C     -158.513    -111.780     -27.099
  O     -157.388    -112.118     -27.887
  O     -156.053    -112.012     -25.769
  O     -154.769    -112.163     -28.048
  H     -156.774    -111.527     -25.326
  H     -159.419    -112.128     -27.612
  H     -158.574    -110.692     -26.971
  H     -158.449    -112.266     -26.120
  H     -162.263    -106.696     -23.839
  H     -162.865    -108.292     -24.217
  H     -161.971    -107.389     -25.417

 3  4  5  6  7  8  9  10  11  12  22  25  29  30  31  32 0
 6-311+G(2d,p)
 ****
 33  36  37 0
 6-311+G(2d,p)
 ****
 1  2  13  14  15  16  17  18  19  20  21  23  24  26 0
 3-21G
 ****
 27  28  34  35  38  39  40  41  42  43  44  45  46  47  48 0
 3-21G
 ****


