%nproc=1
%NoSave
%Mem=1900MB
#P OB98/GEN NMR

erre ene a

0 1
  C     -529.488    -131.162     387.911
  O     -529.230    -132.336     387.171
  H     -529.738    -130.360     387.214
  H     -528.592    -130.876     388.471
  H     -530.324    -131.299     388.603
  P     -529.274    -133.747     387.927
  C     -526.700    -133.915     387.906
  O     -527.931    -134.541     387.559
  C     -525.506    -134.593     387.228
  O     -525.362    -135.947     387.707
  C     -525.681    -134.696     385.712
  O     -525.306    -133.546     384.976
  C     -524.772    -135.880     385.376
  O     -523.414    -135.445     385.196
  C     -524.894    -136.764     386.618
  N     -525.995    -141.634     387.715
  C     -524.901    -140.880     388.099
  N     -523.955    -141.524     388.818
  N     -524.749    -139.620     387.789
  C     -525.729    -139.135     386.988
  C     -526.848    -139.787     386.529
  C     -527.039    -141.169     386.922
  O     -527.986    -141.879     386.606
  N     -527.621    -138.968     385.739
  C     -526.928    -137.850     385.659
  N     -525.783    -137.895     386.420
  O     -530.396    -134.569     387.123
  O     -529.603    -133.682     389.389
  H     -522.826    -136.201     385.378
  H     -530.797    -135.238     387.704
  H     -526.073    -142.589     388.006
  H     -527.220    -136.975     385.086
  H     -523.921    -137.170     386.921
  H     -525.074    -136.371     384.448
  H     -523.975    -142.522     388.982
  H     -526.711    -134.977     385.465
  H     -523.032    -141.092     388.888
  H     -524.588    -134.054     387.493
  H     -526.604    -133.992     388.988
  H     -526.732    -132.853     387.653
  P     -526.255    -133.003     383.804
  C     -524.493    -133.318     381.915
  O     -525.294    -132.424     382.657
  O     -526.902    -131.691     384.456
  O     -527.290    -133.963     383.339
  H     -527.783    -131.898     384.824
  H     -523.918    -132.770     381.198
  H     -525.120    -134.022     381.408
  H     -523.834    -133.840     382.577

 6  7  8  9  10  11  12  13  14  15  26  29  33  34 0
 6-311+G(2d,p)
 ****
 36  38  39  40  41 0
 6-311+G(2d,p)
 ****
 1  2  3  4  5  16  17  18  19  20  21  22  23  24  25 0
 3-21G
 ****
 27  28  30  31  32  35  37  42  43  44  45  46  47 0
 3-21G
 ****
 48  49 0
 3-21G
 ****


