%nproc=1
%NoSave
%Mem=1900MB
#P OB98/GEN NMR

erre ene a

0 1
  C     -237.177     543.868     340.278
  O     -238.199     544.816     340.039
  H     -236.542     544.204     341.107
  H     -237.633     542.916     340.554
  H     -236.571     543.737     339.379
  P     -237.737     546.306     339.664
  C     -239.852     546.639     338.194
  O     -239.070     547.130     339.278
  C     -241.122     547.466     338.060
  O     -241.994     547.166     339.184
  C     -240.895     548.993     338.021
  O     -241.443     549.549     336.819
  C     -241.710     549.522     339.197
  O     -242.392     550.734     338.906
  C     -242.677     548.380     339.504
  N     -245.757     550.635     342.884
  C     -245.825     550.550     341.534
  N     -245.030     549.842     340.704
  C     -244.102     549.146     341.386
  C     -243.927     549.130     342.767
  C     -244.797     549.935     343.526
  N     -244.696     550.065     344.894
  N     -242.861     548.319     343.111
  C     -242.378     547.894     341.962
  N     -243.082     548.386     340.886
  O     -236.986     546.116     338.264
  O     -236.859     546.970     340.666
  H     -242.790     551.042     339.740
  H     -236.136     546.583     338.274
  H     -246.615     551.122     341.052
  H     -241.492     547.275     341.833
  H     -243.587     548.439     338.880
  H     -241.027     549.696     340.050
  H     -239.841     549.268     338.127
  H     -241.652     547.141     337.147
  H     -240.120     545.596     338.382
  H     -245.287     550.751     345.336
  H     -243.922     549.628     345.366
  H     -239.252     546.674     337.276
  P     -240.421     549.713     335.577
  C     -241.660     549.018     333.388
  O     -241.296     550.061     334.286
  O     -239.953     548.195     335.293
  O     -239.260     550.613     335.861
  H     -239.070     548.181     334.888
  H     -242.240     549.424     332.586
  H     -242.238     548.284     333.910
  H     -240.776     548.562     332.994

 6  7  8  9  10  11  12  13  14  15  25  28  32  33  34  35 0
 6-311+G(2d,p)
 ****
 36  39  40 0
 6-311+G(2d,p)
 ****
 1  2  3  4  5  16  17  18  19  20  21  22  23  24 0
 3-21G
 ****
 26  27  29  30  31  37  38  41  42  43  44  45  46  47  48 0
 3-21G
 ****


