%nproc=1
%NoSave
%Mem=1900MB
#P OB98/GEN NMR

erre ene a

0 1
  C      113.186    -360.197     419.443
  O      112.756    -359.914     418.109
  P      111.346    -359.149     417.974
  C      110.350    -360.150     415.799
  O      111.002    -359.047     416.408
  C      110.832    -360.351     414.352
  O      110.650    -359.126     413.578
  C      112.318    -360.732     414.251
  O      112.444    -361.630     413.135
  C      112.969    -359.395     413.939
  O      114.289    -359.513     413.431
  C      111.930    -358.813     412.980
  N      114.770    -355.203     410.753
  C      114.887    -356.547     410.795
  N      114.091    -357.447     411.422
  C      113.073    -356.821     412.032
  C      112.818    -355.458     412.079
  C      113.722    -354.627     411.396
  N      113.626    -353.254     411.365
  N      111.686    -355.194     412.841
  C      111.311    -356.380     413.292
  N      112.070    -357.395     412.773
  O      111.695    -357.645     418.394
  O      110.265    -359.743     418.816
  H      114.565    -358.666     413.030
  H      111.432    -357.481     419.319
  H      115.744    -356.969     410.267
  H      110.514    -356.558     414.004
  H      111.967    -359.296     411.996
  H      113.027    -358.799     414.857
  H      112.712    -361.221     415.144
  H      110.213    -361.132     413.886
  H      109.268    -359.995     415.793
  H      114.325    -352.745     410.849
  H      112.863    -352.784     411.845
  H      110.525    -361.053     416.396
  P      112.486    -363.207     413.411
  C      114.911    -363.296     412.568
  O      113.586    -363.765     412.378
  O      111.126    -363.672     412.684
  O      112.597    -363.632     414.837
  H      111.064    -363.306     411.791
  H      115.570    -363.809     411.866
  H      115.246    -363.506     413.592
  H      114.955    -362.216     412.373
  H      114.128    -360.704     419.414
  H      112.462    -360.818     419.927
  H      113.290    -359.281     419.986

 3  4  5  6  7  8  9  10  11  12  22  25  29  30  31  32 0
 6-311+G(2d,p)
 ****
 33  36  37 0
 6-311+G(2d,p)
 ****
 1  2  13  14  15  16  17  18  19  20  21  23  24  26 0
 3-21G
 ****
 27  28  34  35  38  39  40  41  42  43  44  45  46  47  48 0
 3-21G
 ****


