%nproc=1
%NoSave
%Mem=1900MB
#P OB98/GEN NMR

erre ene a

0 1
  C     -559.734      23.032     -56.648
  O     -558.697      23.003     -55.686
  H     -559.721      23.987     -57.185
  H     -559.575      22.225     -57.371
  H     -560.707      22.883     -56.169
  P     -558.762      24.134     -54.547
  C     -557.237      25.718     -55.926
  O     -558.491      25.544     -55.272
  C     -557.223      27.052     -56.679
  O     -557.321      28.127     -55.710
  C     -555.941      27.284     -57.520
  O     -556.283      27.670     -58.854
  C     -555.260      28.460     -56.832
  O     -554.580      29.310     -57.744
  C     -556.415      29.160     -56.133
  N     -553.691      33.245     -54.780
  C     -554.270      32.912     -55.952
  N     -555.073      31.859     -56.228
  C     -555.276      31.119     -55.107
  C     -554.767      31.351     -53.840
  C     -553.925      32.465     -53.696
  N     -553.281      32.782     -52.515
  N     -555.185      30.373     -52.961
  C     -555.906      29.537     -53.693
  N     -555.977      29.949     -55.006
  O     -557.406      23.880     -53.713
  O     -559.965      24.069     -53.671
  H     -554.178      30.030     -57.211
  H     -557.649      23.648     -52.797
  H     -554.069      33.577     -56.793
  H     -556.355      28.620     -53.339
  H     -556.969      29.819     -56.812
  H     -554.532      28.067     -56.106
  H     -555.295      26.400     -57.547
  H     -558.115      27.105     -57.323
  H     -557.075      24.899     -56.644
  H     -552.597      33.518     -52.534
  H     -553.354      32.130     -51.747
  H     -556.444      25.690     -55.168
  P     -555.887      26.630     -60.013
  C     -553.371      27.252     -59.682
  O     -554.344      26.199     -59.802
  O     -555.850      27.541     -61.333
  O     -556.846      25.493     -60.168
  H     -556.459      27.179     -62.009
  H     -552.399      26.826     -59.548
  H     -553.611      27.865     -58.839
  H     -553.379      27.848     -60.570

 6  7  8  9  10  11  12  13  14  15  25  28  32  33  34  35 0
 6-311+G(2d,p)
 ****
 36  39  40 0
 6-311+G(2d,p)
 ****
 1  2  3  4  5  16  17  18  19  20  21  22  23  24 0
 3-21G
 ****
 26  27  29  30  31  37  38  41  42  43  44  45  46  47  48 0
 3-21G
 ****


