%nproc=1
%NoSave
%Mem=1900MB
#P OB98/GEN NMR

erre ene a

0 1
  C      516.031      25.997     -41.670
  O      517.443      25.925     -41.691
  H      515.604      25.033     -41.957
  H      515.707      26.239     -40.654
  H      515.677      26.780     -42.347
  P      518.136      25.754     -43.128
  C      518.712      23.235     -42.850
  O      517.935      24.210     -43.529
  C      518.167      21.833     -43.125
  O      519.041      20.858     -42.494
  C      516.751      21.608     -42.582
  O      516.020      20.808     -43.514
  C      516.984      20.826     -41.300
  O      515.853      20.042     -40.932
  C      518.221      20.010     -41.664
  N      518.288      16.712     -37.766
  C      517.479      16.824     -38.840
  N      517.533      17.732     -39.840
  C      518.584      18.554     -39.674
  C      519.494      18.566     -38.629
  C      519.309      17.591     -37.630
  N      520.106      17.494     -36.514
  N      520.407      19.588     -38.797
  C      520.055      20.180     -39.921
  N      518.957      19.594     -40.484
  O      519.698      25.848     -42.768
  O      517.740      26.749     -44.163
  H      515.747      19.327     -41.594
  H      519.947      26.786     -42.658
  H      516.679      16.093     -38.906
  H      520.553      21.035     -40.361
  H      517.974      19.104     -42.230
  H      517.202      21.520     -40.478
  H      516.214      22.542     -42.401
  H      518.212      21.646     -44.204
  H      518.673      23.436     -41.773
  H      519.869      16.805     -35.821
  H      520.835      18.179     -36.368
  H      519.752      23.300     -43.188
  P      514.722      21.482     -44.179
  C      512.914      20.701     -42.496
  O      513.655      21.792     -43.024
  O      514.059      20.278     -45.001
  O      515.042      22.638     -45.073
  H      513.867      20.561     -45.913
  H      512.246      21.056     -41.739
  H      513.587      19.986     -42.071
  H      512.351      20.239     -43.280

 6  7  8  9  10  11  12  13  14  15  25  28  32  33  34  35 0
 6-311+G(2d,p)
 ****
 36  39  40 0
 6-311+G(2d,p)
 ****
 1  2  3  4  5  16  17  18  19  20  21  22  23  24 0
 3-21G
 ****
 26  27  29  30  31  37  38  41  42  43  44  45  46  47 0
 3-21G
 ****
 48 0
 3-21G
 ****


