%nproc=1
%NoSave
%Mem=1900MB
#P OB98/GEN NMR

erre ene a

0 1
  C     1514.200     906.340    -816.171
  O     1514.196     907.746    -816.190
  H     1515.237     905.991    -816.120
  H     1513.747     905.949    -817.085
  H     1513.654     905.962    -815.298
  P     1512.763     908.478    -816.239
  C     1513.279     909.189    -813.786
  O     1512.330     908.650    -814.693
  C     1512.604     909.504    -812.450
  O     1511.594     910.509    -812.650
  C     1511.931     908.275    -811.801
  O     1512.218     908.269    -810.396
  C     1510.459     908.501    -812.041
  O     1509.645     907.847    -811.075
  C     1510.355     910.036    -812.079
  N     1509.210     910.496    -812.848
  C     1508.034     910.786    -812.107
  O     1508.011     910.642    -810.878
  N     1506.910     911.174    -812.796
  C     1506.934     911.237    -814.084
  N     1505.778     911.608    -814.695
  C     1508.115     910.894    -814.897
  C     1509.213     910.545    -814.219
  O     1511.791     907.335    -816.777
  O     1512.720     909.738    -817.034
  H     1509.989     908.072    -810.189
  H     1510.926     907.699    -817.056
  H     1508.081     910.933    -815.985
  H     1510.129     910.268    -814.723
  H     1510.277     910.433    -811.054
  H     1510.190     908.093    -813.038
  H     1512.269     907.339    -812.229
  H     1513.360     909.951    -811.770
  H     1504.978     911.829    -814.104
  H     1513.694     910.109    -814.205
  H     1505.667     911.659    -815.704
  H     1514.094     908.460    -813.629
  P     1513.488     907.400    -809.948
  C     1514.954     909.444    -809.311
  O     1514.807     908.319    -810.147
  O     1513.613     906.299    -811.099
  O     1513.345     906.797    -808.597
  H     1513.219     905.466    -810.814
  H     1515.864     909.952    -809.554
  H     1514.984     909.128    -808.289
  H     1514.126     910.106    -809.455

 6  7  8  9  10  11  12  13  14  15  16  26  30  31  32  33  35 0
 6-311+G(2d,p)
 ****
 37  38 0
 6-311+G(2d,p)
 ****
 1  2  3  4  5  17  18  19  20  21  22  23  24  25 0
 3-21G
 ****
 27  28  29  34  36  39  40  41  42  43  44  45  46 0
 3-21G
 ****


