%nproc=1
%NoSave
%Mem=1900MB
#P OB98/GEN NMR

erre ene a

0 1
  C      186.704    -439.952     143.200
  O      185.805    -438.860     143.203
  H      187.706    -439.584     143.424
  H      186.712    -440.420     142.213
  H      186.418    -440.688     143.959
  P      184.239    -439.193     143.131
  C      183.636    -438.911     145.650
  O      183.834    -439.807     144.562
  C      182.627    -439.503     146.634
  O      183.178    -440.737     147.176
  C      182.298    -438.583     147.822
  O      180.915    -438.750     148.161
  C      183.163    -439.147     148.942
  O      182.689    -438.831     150.242
  C      183.105    -440.641     148.616
  N      184.186    -441.395     149.249
  C      183.979    -441.846     150.550
  O      182.929    -441.729     151.173
  N      185.055    -442.456     151.141
  C      186.293    -442.632     150.588
  O      187.223    -443.169     151.179
  C      186.449    -442.127     149.212
  C      185.412    -441.539     148.616
  O      184.186    -440.465     142.158
  O      183.364    -438.079     142.666
  H      184.093    -440.179     141.232
  H      181.981    -439.471     150.460
  H      184.922    -442.785     152.080
  H      187.419    -442.243     148.741
  H      185.498    -441.134     147.618
  H      182.143    -441.063     148.926
  H      184.180    -438.767     148.851
  H      182.509    -437.520     147.637
  H      181.713    -439.774     146.088
  H      183.246    -437.961     145.266
  H      184.594    -438.726     146.146
  P      180.157    -437.494     148.802
  C      180.147    -435.906     146.716
  O      180.684    -436.210     147.998
  O      180.875    -437.393     150.227
  O      178.677    -437.669     148.850
  H      181.815    -437.628     150.191
  H      180.614    -435.022     146.334
  H      179.093    -435.745     146.800
  H      180.331    -436.723     146.050

 6  7  8  9  10  11  12  13  14  15  16  27  31  32  33  34  35 0
 6-311+G(2d,p)
 ****
 36  37 0
 6-311+G(2d,p)
 ****
 1  2  3  4  5  17  18  19  20  21  22  23  24  25 0
 3-21G
 ****
 26  28  29  30  38  39  40  41  42  43  44  45 0
 3-21G
 ****


