%nproc=1
%NoSave
%Mem=1900MB
#P OB98/GEN NMR

erre ene a

0 1
  C       14.866     -96.197      52.911
  O       14.436     -95.331      53.948
  P       15.477     -94.356      54.682
  C       16.346     -96.156      56.298
  O       15.656     -94.918      56.175
  C       16.289     -96.665      57.738
  O       16.802     -98.017      57.775
  C       17.118     -95.832      58.708
  O       16.441     -95.779      59.968
  C       18.398     -96.629      58.889
  O       19.015     -96.346      60.157
  C       17.885     -98.065      58.725
  N       21.627    -101.347      59.980
  C       20.770    -100.632      60.738
  N       19.818     -99.760      60.340
  C       19.762     -99.703      58.999
  C       20.571    -100.377      58.094
  C       21.545    -101.232      58.635
  N       22.412    -101.970      57.857
  N       20.236    -100.039      56.796
  C       19.234     -99.196      56.918
  N       18.904     -98.969      58.229
  O       15.146     -92.905      54.602
  O       16.885     -94.683      54.001
  H       19.035     -95.372      60.255
  H       17.406     -93.865      53.889
  H       20.861    -100.776      61.812
  H       18.724     -98.715      56.098
  H       17.494     -98.465      59.668
  H       19.111     -96.363      58.100
  H       17.309     -94.817      58.344
  H       15.239     -96.702      58.054
  H       17.390     -95.998      56.014
  H       22.993    -102.646      58.326
  H       22.237    -102.018      56.862
  H       15.907     -96.888      55.612
  P       15.618     -94.427      60.267
  C       17.315     -93.763      62.127
  O       15.979     -94.057      61.783
  O       14.172     -94.563      59.924
  O       16.422     -93.369      59.372
  H       17.350     -93.659      59.219
  H       17.366     -93.577      63.203
  H       17.651     -92.863      61.604
  H       17.969     -94.604      61.882
  H       14.033     -96.763      52.550
  H       15.613     -96.864      53.290
  H       15.277     -95.618      52.111

 3  4  5  6  7  8  9  10  11  12  22  25  29  30  31  32 0
 6-311+G(2d,p)
 ****
 33  36  37 0
 6-311+G(2d,p)
 ****
 1  2  13  14  15  16  17  18  19  20  21  23  24  26 0
 3-21G
 ****
 27  28  34  35  38  39  40  41  42  43  44  45  46  47  48 0
 3-21G
 ****


