%nproc=1
%NoSave
%Mem=1900MB
#P OB98/GEN NMR

erre ene a

0 1
  C      288.326    -565.726    -115.229
  O      288.593    -564.462    -115.795
  H      287.498    -566.183    -115.777
  H      288.034    -565.608    -114.181
  H      289.197    -566.384    -115.295
  P      290.004    -563.766    -115.494
  C      291.283    -564.644    -117.561
  O      291.150    -564.687    -116.146
  C      292.547    -563.899    -117.993
  O      293.727    -564.625    -117.579
  C      292.654    -563.756    -119.513
  O      291.951    -562.667    -120.071
  C      294.160    -563.601    -119.709
  O      294.554    -562.220    -119.550
  C      294.740    -564.454    -118.580
  N      298.353    -567.095    -121.072
  C      298.235    -565.730    -120.894
  N      299.167    -564.968    -121.515
  N      297.283    -565.166    -120.197
  C      296.366    -566.043    -119.715
  C      296.371    -567.423    -119.828
  C      297.460    -568.034    -120.559
  O      297.611    -569.242    -120.745
  N      295.279    -567.981    -119.207
  C      294.583    -566.939    -118.784
  N      295.216    -565.746    -119.038
  O      290.218    -564.007    -113.922
  O      290.087    -562.309    -115.830
  H      294.167    -561.704    -120.277
  H      290.790    -563.309    -113.555
  H      299.122    -567.477    -121.580
  H      293.630    -567.000    -118.265
  H      295.588    -563.951    -118.096
  H      294.474    -563.906    -120.714
  H      299.842    -565.346    -122.155
  H      292.341    -564.690    -119.999
  H      298.965    -563.970    -121.633
  H      292.580    -562.925    -117.493
  H      290.401    -564.131    -117.944
  H      291.275    -565.660    -117.976
  P      291.613    -562.649    -121.639
  C      289.297    -563.761    -121.191
  O      290.521    -563.794    -121.896
  O      292.947    -563.228    -122.294
  O      291.264    -561.304    -122.191
  H      293.524    -562.505    -122.597
  H      288.694    -564.595    -121.485
  H      288.781    -562.851    -121.415
  H      289.489    -563.813    -120.140

 6  7  8  9  10  11  12  13  14  15  26  29  33  34 0
 6-311+G(2d,p)
 ****
 36  38  39  40  41 0
 6-311+G(2d,p)
 ****
 1  2  3  4  5  16  17  18  19  20  21  22  23  24  25 0
 3-21G
 ****
 27  28  30  31  32  35  37  42  43  44  45  46  47 0
 3-21G
 ****
 48  49 0
 3-21G
 ****


