%nproc=1
%NoSave
%Mem=1900MB
#P OB98/GEN NMR

erre ene a

0 1
  C       59.994      77.773       4.838
  O       60.219      76.701       5.737
  P       61.586      76.593       6.559
  C       64.113      76.773       5.873
  O       62.788      76.443       5.520
  C       65.061      76.243       4.788
  O       65.202      74.812       4.907
  C       64.540      76.551       3.388
  O       65.111      77.752       2.894
  C       64.949      75.320       2.603
  O       66.329      75.413       2.204
  C       64.772      74.203       3.660
  N       63.419      73.649       3.865
  C       62.725      73.113       2.784
  O       63.181      73.040       1.648
  N       61.451      72.677       3.055
  C       60.848      72.686       4.279
  O       59.647      72.524       4.461
  C       61.722      73.005       5.411
  C       62.938      73.486       5.156
  O       61.492      75.142       7.226
  O       61.810      77.664       7.575
  H       66.407      76.189       1.620
  H       61.193      75.208       8.152
  H       60.892      72.416       2.249
  H       61.328      72.890       6.412
  H       63.590      73.766       5.980
  H       65.439      73.359       3.454
  H       64.373      75.227       1.684
  H       63.443      76.613       3.395
  H       66.052      76.692       4.934
  H       64.363      76.335       6.845
  H       64.219      77.858       5.969
  P       64.168      78.861       2.230
  C       62.826      78.864       0.047
  O       63.991      78.405       0.703
  O       64.598      80.277       2.432
  O       62.739      78.573       2.895
  H       62.592      79.187       3.644
  H       62.913      78.641      -1.019
  H       62.711      79.944       0.177
  H       61.950      78.347       0.446
  H       59.028      77.666       4.390
  H       60.744      77.762       4.075
  H       60.040      78.700       5.370

 3  4  5  6  7  8  9  10  11  12  13  23  28  29  30  31  32 0
 6-311+G(2d,p)
 ****
 33  34 0
 6-311+G(2d,p)
 ****
 1  2  14  15  16  17  18  19  20  21  22  24  25  26  27 0
 3-21G
 ****
 35  36  37  38  39  40  41  42  43  44  45 0
 3-21G
 ****


