%nproc=1
%NoSave
%Mem=1900MB
#P OB98/GEN NMR

erre ene a

0 1
  C     2586.060     402.338    -538.492
  O     2587.269     402.373    -539.209
  H     2586.252     402.669    -537.472
  H     2585.670     401.310    -538.458
  H     2585.321     402.992    -538.949
  P     2587.196     402.135    -540.791
  C     2587.365     404.710    -541.220
  O     2586.632     403.502    -541.430
  C     2586.618     405.592    -540.204
  O     2586.620     404.926    -538.920
  C     2587.257     406.984    -540.013
  O     2586.227     407.935    -539.800
  C     2588.055     406.793    -538.741
  O     2588.314     408.027    -538.049
  C     2587.121     405.861    -537.941
  N     2587.831     405.174    -536.858
  C     2587.812     405.784    -535.605
  O     2587.183     406.778    -535.323
  N     2588.554     405.146    -534.653
  C     2589.329     404.029    -534.829
  O     2589.994     403.543    -533.917
  C     2589.311     403.461    -536.166
  C     2588.589     404.040    -537.105
  O     2585.970     401.120    -540.938
  O     2588.444     401.636    -541.438
  H     2586.278     400.204    -540.897
  H     2587.557     408.623    -538.194
  H     2588.554     405.581    -533.729
  H     2589.928     402.568    -536.333
  H     2588.587     403.625    -538.106
  H     2586.287     406.416    -537.544
  H     2589.024     406.320    -538.934
  H     2587.918     407.312    -540.856
  H     2585.581     405.693    -540.523
  H     2587.452     405.248    -542.182
  H     2588.360     404.463    -540.847
  P     2585.480     408.501    -541.112
  C     2583.086     408.000    -540.169
  O     2584.067     407.743    -541.161
  O     2586.343     407.821    -542.294
  O     2585.417     409.987    -541.142
  H     2586.654     406.933    -542.060
  H     2582.217     407.407    -540.365
  H     2582.822     409.037    -540.188
  H     2583.479     407.750    -539.206

 6  7  8  9  10  11  12  13  14  15  16  27  31  32  33  34  35 0
 6-311+G(2d,p)
 ****
 36  37 0
 6-311+G(2d,p)
 ****
 1  2  3  4  5  17  18  19  20  21  22  23  24  25 0
 3-21G
 ****
 26  28  29  30  38  39  40  41  42  43  44  45 0
 3-21G
 ****


