%nproc=1
%NoSave
%Mem=1900MB
#P OB98/GEN NMR

erre ene a

0 1
  C      152.977    -587.762    -213.429
  O      152.846    -586.955    -214.603
  P      153.886    -587.106    -215.824
  C      152.144    -587.460    -217.676
  O      153.175    -586.611    -217.180
  C      151.476    -586.941    -218.944
  O      150.554    -585.857    -218.637
  C      152.432    -586.417    -220.016
  O      151.818    -586.712    -221.272
  C      152.437    -584.922    -219.756
  O      152.903    -584.166    -220.858
  C      150.963    -584.689    -219.375
  N      150.777    -583.459    -218.608
  C      150.390    -582.327    -219.320
  O      150.279    -582.367    -220.547
  N      150.181    -581.146    -218.632
  C      150.444    -581.093    -217.358
  N      150.246    -579.905    -216.738
  C      150.930    -582.252    -216.579
  C      151.058    -583.395    -217.265
  O      154.536    -588.451    -215.921
  O      154.977    -585.967    -215.546
  H      152.913    -583.218    -220.610
  H      155.842    -586.257    -215.899
  H      151.166    -582.155    -215.529
  H      151.411    -584.308    -216.787
  H      150.334    -584.635    -220.280
  H      153.082    -584.698    -218.893
  H      153.432    -586.854    -219.956
  H      150.864    -587.753    -219.356
  H      149.933    -579.120    -217.312
  H      151.391    -587.586    -216.887
  H      150.518    -579.729    -215.785
  H      152.570    -588.456    -217.868
  P      152.310    -587.927    -222.196
  C      149.895    -588.756    -222.441
  O      151.064    -588.344    -223.122
  O      152.940    -589.058    -221.468
  O      153.337    -587.262    -223.234
  H      153.876    -587.962    -223.643
  H      149.062    -588.816    -223.142
  H      149.640    -588.057    -221.638
  H      150.060    -589.751    -222.005
  H      152.198    -587.516    -212.738
  H      153.928    -587.578    -212.974
  H      152.903    -588.795    -213.696

 3  4  5  6  7  8  9  10  11  12  13  23  27  28  29  30  32 0
 6-311+G(2d,p)
 ****
 34  35 0
 6-311+G(2d,p)
 ****
 1  2  14  15  16  17  18  19  20  21  22  24  25  26 0
 3-21G
 ****
 31  33  36  37  38  39  40  41  42  43  44  45  46 0
 3-21G
 ****


