%nproc=1
%NoSave
%Mem=1900MB
#P OB98/GEN NMR

erre ene a

0 1
  C     -363.561     753.202     529.995
  O     -363.513     754.572     529.628
  H     -364.474     752.767     529.589
  H     -363.582     753.113     531.084
  H     -362.706     752.651     529.595
  P     -362.139     755.379     529.842
  C     -363.106     755.957     532.165
  O     -362.426     756.442     531.015
  C     -363.821     757.109     532.896
  O     -362.833     758.067     533.346
  C     -364.837     757.855     532.024
  O     -365.884     758.334     532.894
  C     -364.013     759.026     531.521
  O     -364.816     760.074     531.026
  C     -363.176     759.342     532.775
  N     -361.999     760.155     532.460
  C     -361.940     761.425     533.035
  O     -362.840     761.887     533.740
  N     -360.840     762.168     532.736
  C     -359.831     761.801     531.881
  O     -358.881     762.525     531.617
  C     -359.964     760.477     531.279
  C     -361.032     759.708     531.584
  O     -361.536     755.960     528.610
  O     -361.166     754.324     530.553
  H     -364.254     760.786     530.652
  H     -360.237     754.518     530.307
  H     -360.779     763.085     533.149
  H     -359.189     760.155     530.586
  H     -361.139     758.727     531.159
  H     -363.783     759.891     533.504
  H     -363.351     758.702     530.699
  H     -365.253     757.245     531.225
  H     -364.299     756.698     533.795
  H     -362.369     755.498     532.827
  H     -363.830     755.202     531.853
  P     -367.259     757.531     533.078
  C     -368.580     759.736     532.984
  O     -368.360     758.526     533.700
  O     -367.105     756.232     533.826
  O     -367.793     757.256     531.594
  H     -368.332     756.454     531.567
  H     -369.327     760.316     533.485
  H     -368.911     759.508     531.992
  H     -367.668     760.293     532.937

 6  7  8  9  10  11  12  13  14  15  16  26  31  32  33  34  35 0
 6-311+G(2d,p)
 ****
 36  37 0
 6-311+G(2d,p)
 ****
 1  2  3  4  5  17  18  19  20  21  22  23  24  25 0
 3-21G
 ****
 27  28  29  30  38  39  40  41  42  43  44  45 0
 3-21G
 ****


