%nproc=1
%NoSave
%Mem=1900MB
#P OB98/GEN NMR

erre ene a

0 1
  C      -48.893     324.454     995.581
  O      -49.362     325.069     996.777
  P      -48.604     326.431     997.231
  C      -50.876     327.670     997.610
  O      -49.641     327.246     998.172
  C      -51.837     328.126     998.716
  O      -52.407     326.995     999.405
  C      -51.180     328.976     999.804
  O      -51.006     330.318     999.392
  C      -52.209     328.873    1000.911
  O      -53.259     329.832    1000.702
  C      -52.737     327.432    1000.739
  N      -53.055     325.479    1005.420
  C      -53.840     326.443    1004.798
  N      -54.869     326.943    1005.533
  N      -53.636     326.879    1003.592
  C      -52.585     326.279    1002.960
  C      -51.739     325.319    1003.464
  C      -51.958     324.856    1004.829
  O      -51.277     324.038    1005.439
  N      -50.799     324.945    1002.548
  C      -51.087     325.651    1001.476
  N      -52.161     326.491    1001.676
  O      -48.582     327.292     995.883
  O      -47.240     326.215     997.780
  H      -54.012     329.558    1001.277
  H      -47.830     327.908     995.889
  H      -53.259     325.190    1006.359
  H      -50.574     325.578    1000.523
  H      -53.831     327.394    1000.835
  H      -51.793     329.082    1001.901
  H      -55.128     326.606    1006.444
  H      -50.223     328.530    1000.135
  H      -55.473     327.609    1005.089
  H      -52.650     328.702     998.228
  H      -51.333     326.855     997.047
  H      -50.680     328.484     996.890
  P      -50.132     331.275    1000.371
  C      -48.334     331.821     998.573
  O      -49.379     332.292     999.387
  O      -48.976     330.313    1000.880
  O      -50.915     331.890    1001.475
  H      -48.663     330.589    1001.772
  H      -48.590     330.851     998.128
  H      -47.418     331.721     999.166
  H      -48.140     332.536     997.769
  H      -49.465     323.571     995.386
  H      -47.862     324.192     995.695
  H      -49.000     325.136     994.764

 3  4  5  6  7  8  9  10  11  12  23  26  30  31  33  0
 6-311+G(2d,p)
 ****
 35  36  37  38 0
 6-311+G(2d,p)
 ****
 1  2  13  14  15  16  17  18  19  20  21  22  24  25  27  28  29 0
 3-21G
 ****
 32  34  39  40  41  42  43  44  45  46  47  48  49 0
 3-21G
 ****


