%nproc=1
%NoSave
%Mem=1900MB
#P OB98/GEN NMR

erre ene a

0 1
  C      663.760    1232.528     590.406
  O      664.083    1231.287     590.987
  P      662.971    1230.444     591.804
  C      664.768    1228.698     592.418
  O      663.797    1229.631     592.926
  C      665.661    1228.215     593.575
  O      664.866    1228.103     594.769
  C      666.340    1226.857     593.378
  O      667.543    1226.888     592.608
  C      666.654    1226.505     594.828
  O      667.846    1227.226     595.243
  C      665.437    1227.027     595.572
  N      663.529    1223.655     598.903
  C      664.532    1224.549     599.012
  N      664.989    1225.412     598.080
  C      664.283    1225.290     596.923
  C      663.229    1224.415     596.684
  C      662.860    1223.557     597.730
  N      661.827    1222.626     597.631
  N      662.746    1224.577     595.404
  C      663.485    1225.540     594.883
  N      664.420    1226.001     595.785
  O      662.058    1229.613     590.945
  O      662.206    1231.563     592.672
  H      667.847    1227.203     596.215
  H      661.346    1231.201     592.978
  H      665.041    1224.610     599.977
  H      663.393    1225.929     593.865
  H      665.682    1227.463     596.554
  H      666.857    1225.427     594.958
  H      665.614    1226.140     592.972
  H      666.414    1229.021     593.738
  H      665.368    1229.194     591.660
  H      661.547    1222.159     598.489
  H      661.209    1222.692     596.827
  H      664.234    1227.847     591.962
  P      667.623    1225.860     591.360
  C      668.975    1227.769     590.151
  O      668.836    1226.403     590.455
  O      666.342    1225.630     590.636
  O      668.230    1224.548     592.060
  H      669.146    1224.618     592.400
  H      669.957    1227.950     589.651
  H      668.911    1228.373     591.034
  H      668.164    1228.062     589.443
  H      664.622    1232.926     589.913
  H      663.440    1233.207     591.169
  H      662.972    1232.394     589.694

 3  4  5  6  7  8  9  10  11  12  22  25  29  30  31  32 0
 6-311+G(2d,p)
 ****
 33  36  37 0
 6-311+G(2d,p)
 ****
 1  2  13  14  15  16  17  18  19  20  21  23  24  26 0
 3-21G
 ****
 27  28  34  35  38  39  40  41  42  43  44  45  46  47  48 0
 3-21G
 ****


