%nproc=1
%NoSave
%Mem=1900MB
#P OB98/GEN NMR

erre ene a

0 1
  C      248.471    -279.510     360.497
  O      247.951    -279.889     359.210
  P      248.189    -281.397     358.682
  C      245.686    -281.960     358.197
  O      247.002    -281.832     357.684
  C      244.812    -282.851     357.286
  O      244.380    -282.093     356.124
  C      245.520    -284.107     356.754
  O      244.534    -285.134     356.630
  C      246.005    -283.668     355.379
  O      246.298    -284.748     354.510
  C      244.806    -282.807     354.947
  N      245.093    -281.886     353.841
  C      244.672    -282.253     352.566
  O      244.119    -283.317     352.284
  N      244.928    -281.337     351.570
  C      245.589    -280.146     351.722
  O      245.819    -279.393     350.785
  C      246.040    -279.829     353.085
  C      245.772    -280.699     354.068
  O      247.866    -282.261     359.992
  O      249.567    -281.694     358.188
  H      247.014    -285.263     354.932
  H      248.559    -282.942     360.117
  H      244.618    -281.573     350.638
  H      246.561    -278.900     353.243
  H      246.085    -280.487     355.081
  H      243.975    -283.456     354.662
  H      246.916    -283.075     355.485
  H      246.337    -284.448     357.409
  H      243.910    -283.126     357.847
  H      245.229    -280.979     358.281
  H      245.741    -282.402     359.201
  P      244.553    -286.363     357.664
  C      241.983    -286.237     358.149
  O      243.082    -286.995     357.684
  O      244.631    -285.568     359.056
  O      245.688    -287.323     357.465
  H      244.003    -284.813     359.093
  H      242.032    -285.195     357.809
  H      241.963    -286.257     359.245
  H      241.065    -286.691     357.772
  H      248.228    -278.487     360.693
  H      249.534    -279.631     360.502
  H      248.038    -280.130     361.253

 3  4  5  6  7  8  9  10  11  12  13  23  28  29  30  31  32 0
 6-311+G(2d,p)
 ****
 33  34 0
 6-311+G(2d,p)
 ****
 1  2  14  15  16  17  18  19  20  21  22  24  25  26 0
 3-21G
 ****
 27  35  36  37  38  39  40  41  42  43  44  45 0
 3-21G
 ****


