%nproc=1
%NoSave
%Mem=1900MB
#P OB98/GEN NMR

erre ene a

0 1
  C     -398.351    -974.897     931.443
  O     -399.693    -974.473     931.633
  P     -400.400    -974.880     933.018
  C     -401.097    -972.377     933.335
  O     -401.484    -973.744     933.324
  C     -402.251    -971.507     932.834
  O     -402.433    -971.684     931.413
  C     -403.595    -971.820     933.483
  O     -403.694    -971.181     934.739
  C     -404.571    -971.278     932.439
  O     -404.717    -969.847     932.567
  C     -403.855    -971.638     931.127
  N     -406.679    -973.780     927.507
  C     -406.602    -972.460     927.920
  N     -407.357    -971.571     927.228
  N     -405.853    -972.033     928.902
  C     -405.167    -973.035     929.510
  C     -405.166    -974.383     929.214
  C     -405.964    -974.820     928.089
  O     -405.985    -975.951     927.630
  N     -404.363    -975.083     930.060
  C     -403.845    -974.164     930.847
  N     -404.287    -972.905     930.548
  O     -399.247    -974.619     934.104
  O     -400.931    -976.276     933.074
  H     -404.788    -969.615     933.504
  H     -398.800    -975.451     934.340
  H     -407.259    -974.037     926.728
  H     -403.135    -974.366     931.647
  H     -404.013    -970.878     930.350
  H     -405.569    -971.705     932.542
  H     -407.976    -971.822     926.467
  H     -403.730    -972.904     933.585
  H     -407.323    -970.599     927.513
  H     -401.981    -970.456     933.005
  H     -400.237    -972.241     932.675
  H     -400.811    -972.095     934.355
  P     -404.413    -971.989     935.921
  C     -402.475    -972.448     937.592
  O     -403.621    -971.677     937.276
  O     -404.041    -973.524     935.609
  O     -405.892    -971.804     935.996
  H     -404.799    -974.102     935.839
  H     -401.784    -971.840     938.172
  H     -401.967    -972.811     936.690
  H     -402.777    -973.317     938.192
  H     -398.003    -974.563     930.488
  H     -398.305    -975.965     931.485
  H     -397.734    -974.483     932.213

 3  4  5  6  7  8  9  10  11  12  23  26  30  31 0
 6-311+G(2d,p)
 ****
 33  35  36  37  38 0
 6-311+G(2d,p)
 ****
 1  2  13  14  15  16  17  18  19  20  21  22  24  25 0
 3-21G
 ****
 27  28  29  32  34  39  40  41  42  43  44  45  46  47  48  49 0
 3-21G
 ****


