%nproc=1
%NoSave
%Mem=1900MB
#P OB98/GEN NMR

erre ene a

0 1
  C        4.962     -90.279    -473.867
  O        4.584     -90.537    -475.204
  H        5.191     -89.218    -473.740
  H        4.130     -90.540    -473.207
  H        5.831     -90.882    -473.597
  P        5.658     -90.181    -476.342
  C        4.034     -88.640    -477.660
  O        4.829     -89.822    -477.674
  C        2.656     -88.929    -478.259
  O        1.862     -89.624    -477.260
  C        1.878     -87.682    -478.702
  O        1.546     -87.774    -480.093
  C        0.589     -87.732    -477.898
  O       -0.563     -87.356    -478.657
  C        0.512     -89.182    -477.440
  N       -4.191     -89.307    -475.475
  C       -3.739     -89.553    -476.724
  N       -2.463     -89.608    -477.160
  C       -1.605     -89.402    -476.145
  C       -1.916     -89.159    -474.813
  C       -3.285     -89.095    -474.493
  N       -3.744     -88.788    -473.230
  N       -0.766     -88.986    -474.067
  C        0.219     -89.078    -474.936
  N       -0.238     -89.310    -476.205
  O        6.318     -91.601    -476.682
  O        6.687     -89.173    -475.949
  H       -0.512     -86.390    -478.779
  H        7.291     -91.516    -476.693
  H       -4.504     -89.720    -477.478
  H        1.274     -88.940    -474.713
  H        0.041     -89.831    -478.196
  H        0.676     -87.050    -477.043
  H        2.423     -86.748    -478.516
  H        2.790     -89.621    -479.101
  H        4.522     -87.864    -478.256
  H       -4.736     -88.648    -473.118
  H       -3.078     -88.524    -472.520
  H        3.945     -88.284    -476.626
  P        1.598     -86.408    -480.941
  C       -0.425     -87.144    -482.406
  O        0.929     -86.707    -482.374
  O        3.154     -86.256    -481.291
  O        1.069     -85.224    -480.207
  H        3.383     -85.319    -481.418
  H       -0.726     -87.300    -483.421
  H       -1.051     -86.400    -481.959
  H       -0.517     -88.061    -481.862

 6  7  8  9  10  11  12  13  14  15  25  28  32  33  34  35 0
 6-311+G(2d,p)
 ****
 36  39  40 0
 6-311+G(2d,p)
 ****
 1  2  3  4  5  16  17  18  19  20  21  22  23  24 0
 3-21G
 ****
 26  27  29  30  31  37  38  41  42  43  44  45  46  47  48 0
 3-21G
 ****


