%nproc=1
%NoSave
%Mem=1900MB
#P OB98/GEN NMR

erre ene a

0 1
  C      -85.603     132.859     329.852
  O      -86.715     132.016     330.082
  P      -87.228     131.079     328.885
  C      -89.767     131.631     329.287
  O      -88.735     130.659     329.244
  C      -90.880     131.180     330.239
  O      -91.651     130.127     329.592
  C      -90.388     130.637     331.583
  O      -91.351     131.017     332.576
  C      -90.420     129.128     331.369
  O      -90.481     128.402     332.589
  C      -91.665     128.993     330.486
  N      -91.707     127.741     329.729
  C      -92.218     126.610     330.366
  O      -92.607     126.600     331.533
  N      -92.235     125.463     329.614
  C      -91.741     125.322     328.348
  O      -91.765     124.264     327.728
  C      -91.175     126.541     327.749
  C      -91.192     127.673     328.443
  O      -86.379     129.749     329.151
  O      -87.049     131.682     327.531
  H      -86.245     129.560     330.096
  H      -90.625     127.460     332.373
  H      -92.628     124.639     330.040
  H      -90.758     126.462     326.744
  H      -90.775     128.579     328.029
  H      -92.571     129.081     331.099
  H      -89.515     128.819     330.831
  H      -89.398     131.015     331.854
  H      -91.559     132.029     330.393
  H      -90.182     131.761     328.281
  H      -89.343     132.591     329.603
  P      -90.799     131.636     333.962
  C      -89.950     129.609     335.392
  O      -90.997     130.516     335.092
  O      -91.973     132.675     334.292
  O      -89.454     132.280     333.877
  H      -92.860     132.294     334.210
  H      -90.140     129.172     336.376
  H      -88.982     130.104     335.413
  H      -89.942     128.805     334.652
  H      -85.387     133.415     330.740
  H      -85.827     133.535     329.054
  H      -84.753     132.265     329.588

 3  4  5  6  7  8  9  10  11  12  13  24  28  29  30  31  32 0
 6-311+G(2d,p)
 ****
 33  34 0
 6-311+G(2d,p)
 ****
 1  2  14  15  16  17  18  19  20  21  22  23  25  26  27 0
 3-21G
 ****
 35  36  37  38  39  40  41  42  43  44  45 0
 3-21G
 ****


