%nproc=1
%NoSave
%Mem=1900MB
#P OB98/GEN NMR

erre ene a

0 1
  C       54.244     266.517    -119.918
  O       54.231     267.195    -118.677
  H       54.946     267.021    -120.586
  H       53.247     266.551    -120.364
  H       54.561     265.478    -119.790
  P       53.526     266.441    -117.447
  C       51.097     265.731    -116.870
  O       51.950     266.440    -117.757
  C       49.884     265.192    -117.622
  O       50.298     264.270    -118.652
  C       48.887     264.438    -116.747
  O       47.992     265.326    -116.089
  C       48.159     263.612    -117.797
  O       47.219     264.447    -118.506
  C       49.307     263.207    -118.732
  N       50.577     258.599    -120.433
  C       49.867     259.609    -121.055
  N       49.427     259.349    -122.306
  N       49.608     260.766    -120.503
  C       50.089     260.874    -119.240
  C       50.799     259.943    -118.516
  C       51.092     258.676    -119.144
  O       51.725     257.752    -118.640
  N       51.118     260.411    -117.268
  C       50.581     261.614    -117.229
  N       49.943     261.943    -118.401
  O       53.680     267.498    -116.252
  O       54.121     265.122    -117.084
  H       46.835     263.904    -119.218
  H       54.407     267.210    -115.669
  H       50.739     257.725    -120.899
  H       50.631     262.290    -116.386
  H       48.985     263.136    -119.777
  H       47.589     262.788    -117.364
  H       49.571     258.474    -122.781
  H       49.391     263.770    -116.038
  H       48.907     260.078    -122.782
  H       49.395     266.040    -118.121
  H       50.763     266.410    -116.078
  H       51.657     264.904    -116.422
  P       47.078     264.742    -114.907
  C       44.720     263.675    -114.736
  O       45.675     264.317    -115.568
  O       46.713     266.056    -114.067
  O       47.725     263.711    -114.050
  H       47.154     266.026    -113.195
  H       43.842     263.452    -115.306
  H       44.463     264.322    -113.923
  H       45.135     262.767    -114.351

 6  7  8  9  10  11  12  13  14  15  26  29  33  34 0
 6-311+G(2d,p)
 ****
 36  38  39  40  41 0
 6-311+G(2d,p)
 ****
 1  2  3  4  5  16  17  18  19  20  21  22  23  24  25 0
 3-21G
 ****
 27  28  30  31  32  35  37  42  43  44  45  46  47 0
 3-21G
 ****
 48  49 0
 3-21G
 ****


