%nproc=1
%NoSave
%Mem=1900MB
#P OB98/GEN NMR

erre ene a

0 1
  C      124.296    1145.236    -236.577
  O      125.227    1146.045    -237.295
  P      125.197    1147.621    -237.005
  C      127.232    1147.540    -235.395
  O      125.866    1147.881    -235.566
  C      128.096    1148.806    -235.476
  O      127.840    1149.696    -234.366
  C      129.585    1148.513    -235.427
  O      130.055    1147.988    -236.657
  C      130.140    1149.895    -235.081
  O      130.189    1150.725    -236.252
  C      129.068    1150.432    -234.109
  N      131.296    1152.718    -230.110
  C      131.081    1153.124    -231.379
  N      130.489    1152.451    -232.385
  C      130.073    1151.247    -231.976
  C      130.209    1150.692    -230.709
  C      130.867    1151.482    -229.745
  N      131.088    1151.063    -228.457
  N      129.664    1149.427    -230.665
  C      129.223    1149.207    -231.892
  N      129.433    1150.280    -232.719
  O      123.644    1147.922    -236.769
  O      125.755    1148.444    -238.121
  H      129.397    1150.526    -236.793
  H      123.278    1148.421    -237.527
  H      131.446    1154.121    -231.623
  H      128.748    1148.296    -232.222
  H      128.853    1151.493    -234.279
  H      131.149    1149.860    -234.668
  H      129.817    1147.807    -234.616
  H      127.849    1149.330    -236.410
  H      127.547    1146.825    -236.152
  H      131.637    1151.656    -227.844
  H      130.857    1150.108    -228.202
  H      127.353    1147.050    -234.420
  P      131.597    1147.582    -236.764
  C      131.399    1145.708    -235.017
  O      131.936    1146.983    -235.307
  O      132.309    1149.013    -236.722
  O      131.953    1146.710    -237.920
  H      131.935    1149.588    -236.027
  H      131.732    1145.403    -234.020
  H      131.750    1144.966    -235.750
  H      130.303    1145.745    -235.034
  H      124.420    1144.212    -236.861
  H      123.299    1145.551    -236.805
  H      124.471    1145.338    -235.526

 3  4  5  6  7  8  9  10  11  12  22  25  29  30  31  32 0
 6-311+G(2d,p)
 ****
 33  36  37 0
 6-311+G(2d,p)
 ****
 1  2  13  14  15  16  17  18  19  20  21  23  24  26 0
 3-21G
 ****
 27  28  34  35  38  39  40  41  42  43  44  45  46  47  48 0
 3-21G
 ****


