%nproc=1
%NoSave
%Mem=1900MB
#P OB98/GEN NMR

erre ene a

0 1
  C     -200.977      99.047     470.785
  O     -200.256     100.026     470.073
  H     -200.442      98.811     471.713
  H     -201.041      98.136     470.178
  H     -201.984      99.392     471.034
  P     -201.028     100.807     468.903
  C     -201.310     103.066     470.159
  O     -200.685     102.366     469.088
  C     -200.699     104.465     470.302
  O     -199.323     104.323     470.784
  C     -200.653     105.281     468.991
  O     -200.897     106.652     469.296
  C     -199.205     105.136     468.567
  O     -198.788     106.194     467.707
  C     -198.501     105.131     469.924
  N     -193.699     106.530     469.444
  C     -194.820     107.278     469.722
  N     -194.670     108.616     469.829
  N     -196.016     106.752     469.876
  C     -196.030     105.402     469.766
  C     -194.986     104.558     469.486
  C     -193.666     105.137     469.304
  O     -192.644     104.546     469.044
  N     -195.430     103.249     469.396
  C     -196.734     103.317     469.585
  N     -197.149     104.599     469.821
  O     -202.564     100.700     469.370
  O     -200.825     100.264     467.528
  H     -199.207     106.071     466.835
  H     -202.986      99.937     468.934
  H     -192.801     106.974     469.316
  H     -197.415     102.485     469.566
  H     -198.424     106.125     470.361
  H     -199.048     104.185     468.037
  H     -193.777     109.092     469.753
  H     -201.356     104.940     468.233
  H     -195.479     109.171     470.065
  H     -201.258     105.016     471.081
  H     -201.156     102.507     471.088
  H     -202.380     103.130     469.963
  P     -201.970     107.451     468.408
  C     -202.872     109.184     470.125
  O     -202.095     108.949     468.958
  O     -203.360     106.788     468.849
  O     -201.741     107.329     466.931
  H     -203.969     106.748     468.073
  H     -202.855     110.228     470.360
  H     -202.464     108.627     470.943
  H     -203.881     108.874     469.950

 6  7  8  9  10  11  12  13  14  15  26  29  33  34 0
 6-311+G(2d,p)
 ****
 36  38  39  40  41 0
 6-311+G(2d,p)
 ****
 1  2  3  4  5  16  17  18  19  20  21  22  23  24  25 0
 3-21G
 ****
 27  28  30  31  32  35  37  42  43  44  45  46  47 0
 3-21G
 ****
 48  49 0
 3-21G
 ****


