%nproc=1
%NoSave
%Mem=1900MB
#P OB98/GEN NMR

erre ene a

0 1
  C       65.015     169.588    -311.359
  O       63.847     169.796    -310.591
  H       65.277     170.525    -311.866
  H       64.838     168.819    -312.114
  H       65.847     169.294    -310.714
  P       63.316     168.553    -309.730
  C       62.109     167.511    -311.786
  O       63.093     167.350    -310.771
  C       61.695     166.144    -312.327
  O       60.589     166.304    -313.247
  C       62.788     165.431    -313.127
  O       63.741     164.810    -312.279
  C       61.962     164.445    -313.940
  O       61.657     163.265    -313.188
  C       60.671     165.235    -314.213
  N       61.087     164.061    -319.161
  C       61.098     163.294    -318.046
  N       60.965     163.687    -316.759
  C       60.791     165.021    -316.686
  C       60.762     165.927    -317.733
  C       60.920     165.398    -319.030
  N       60.943     166.180    -320.162
  N       60.612     167.214    -317.252
  C       60.545     167.086    -315.946
  N       60.637     165.778    -315.559
  O       61.830     168.997    -309.334
  O       64.139     168.214    -308.530
  H       62.514     162.839    -312.977
  H       61.835     169.409    -308.450
  H       61.243     162.229    -318.209
  H       60.434     167.904    -315.240
  H       59.774     164.619    -314.092
  H       62.492     164.128    -314.840
  H       63.278     166.135    -313.810
  H       61.357     165.525    -311.490
  H       62.528     168.111    -312.606
  H       61.246     168.034    -311.364
  H       61.080     165.736    -321.055
  H       60.925     167.188    -320.065
  P       65.275     164.780    -312.747
  C       64.889     162.740    -314.316
  O       65.326     164.083    -314.193
  O       65.930     163.690    -311.777
  O       65.976     166.099    -312.669
  H       66.414     164.135    -311.050
  H       64.985     162.425    -315.334
  H       63.864     162.670    -314.016
  H       65.488     162.111    -313.690

 6  7  8  9  10  11  12  13  14  15  25  28  32  33  34  35 0
 6-311+G(2d,p)
 ****
 36  37  40 0
 6-311+G(2d,p)
 ****
 1  2  3  4  5  16  17  18  19  20  21  22  23  24 0
 3-21G
 ****
 26  27  29  30  31  38  39 41  42  43  44  45  46  47  48 0
 3-21G
 ****


