%nproc=1
%NoSave
%Mem=1900MB
#P OB98/GEN NMR

erre ene a

0 1
  C     -296.641     194.200     117.873
  O     -297.426     195.180     118.525
  H     -297.304     193.515     117.338
  H     -296.068     193.632     118.609
  H     -295.960     194.668     117.153
  P     -296.658     196.425     119.178
  C     -297.331     198.897     119.631
  O     -297.767     197.559     119.439
  C     -298.498     199.768     120.094
  O     -299.557     199.695     119.094
  C     -299.106     199.333     121.437
  O     -299.512     200.509     122.149
  C     -300.339     198.554     121.020
  O     -301.345     198.484     122.021
  C     -300.775     199.344     119.781
  N     -301.668     198.577     118.910
  C     -303.005     198.493     119.284
  O     -303.508     199.084     120.240
  N     -303.786     197.681     118.498
  C     -303.363     196.951     117.425
  O     -304.109     196.224     116.776
  C     -301.939     197.074     117.089
  C     -301.167     197.867     117.835
  O     -295.812     197.009     117.951
  O     -295.806     196.106     120.360
  H     -294.935     196.585     117.909
  H     -301.963     197.770     121.766
  H     -304.758     197.609     118.753
  H     -301.567     196.498     116.248
  H     -300.107     197.963     117.628
  H     -301.264     200.279     120.077
  H     -300.060     197.529     120.750
  H     -298.434     198.738     122.061
  H     -298.168     200.811     120.134
  H     -296.945     199.292     118.686
  H     -296.526     198.911     120.375
  P     -298.626     200.950     123.415
  C     -298.563     203.111     124.900
  O     -299.236     202.349     123.902
  O     -297.247     201.339     122.703
  O     -298.526     199.884     124.455
  H     -297.370     201.745     121.829
  H     -299.113     204.007     125.096
  H     -297.582     203.363     124.555
  H     -298.488     202.535     125.799

 6  7  8  9  10  11  12  13  14  15  16  27  31  32  33  34  35 0
 6-311+G(2d,p)
 ****
 36  37 0
 6-311+G(2d,p)
 ****
 1  2  3  4  5  17  18  19  20  21  22  23  24  25 0
 3-21G
 ****
 26  28  29  30  38  39  40  41  42  43  44  45 0
 3-21G
 ****


