%nproc=1
%NoSave
%Mem=1900MB
#P OB98/GEN NMR

erre ene a

0 1
  C      -65.343     -31.838     740.749
  O      -64.835     -30.823     741.620
  P      -65.448     -30.775     743.106
  C      -63.290     -31.805     744.142
  O      -64.705     -31.903     743.968
  C      -62.733     -33.091     744.756
  O      -62.779     -34.177     743.812
  C      -61.275     -32.998     745.175
  O      -61.131     -32.343     746.432
  C      -60.902     -34.466     745.292
  O      -61.326     -34.977     746.568
  C      -61.723     -35.107     744.161
  N      -59.645     -38.727     741.284
  C      -60.379     -38.832     742.444
  N      -60.616     -40.083     742.891
  N      -60.842     -37.812     743.110
  C      -60.547     -36.619     742.533
  C      -59.828     -36.379     741.384
  C      -59.298     -37.523     740.672
  O      -58.612     -37.482     739.652
  N      -59.756     -35.040     741.103
  C      -60.452     -34.464     742.070
  N      -60.940     -35.380     742.966
  O      -66.922     -31.381     742.904
  O      -65.483     -29.411     743.709
  H      -62.255     -34.701     746.694
  H      -67.521     -31.034     743.592
  H      -59.308     -39.550     740.811
  H      -60.628     -33.403     742.157
  H      -62.203     -36.042     744.478
  H      -59.824     -34.639     745.224
  H      -60.353     -40.924     742.393
  H      -60.670     -32.517     744.395
  H      -61.190     -40.184     743.728
  H      -63.356     -33.353     745.625
  H      -63.058     -30.960     744.799
  H      -62.830     -31.595     743.175
  P      -60.953     -30.744     746.410
  C      -63.231     -30.421     747.605
  O      -62.435     -30.142     746.470
  O      -60.473     -30.455     744.907
  O      -59.988     -30.222     747.417
  H      -59.918     -29.654     744.883
  H      -62.651     -30.330     748.531
  H      -63.640     -31.436     747.528
  H      -64.060     -29.710     747.638
  H      -64.860     -31.766     739.797
  H      -66.398     -31.706     740.625
  H      -65.152     -32.801     741.174

 3  4  5  6  7  8  9  10  11  12  23  26  30  31  33  0
 6-311+G(2d,p)
 ****
 35  36  37  38 0
 6-311+G(2d,p)
 ****
 1  2  13  14  15  16  17  18  19  20  21  22  24  25  27  28  29 0
 3-21G
 ****
 32  34  39  40  41  42  43  44  45  46  47  48  49 0
 3-21G
 ****


