%nproc=1
%NoSave
%Mem=1900MB
#P OB98/GEN NMR

erre ene a

0 1
  C       27.300      68.794    -106.997
  O       25.985      69.090    -107.410
  P       25.717      69.864    -108.789
  C       24.934      72.315    -108.774
  O       26.002      71.416    -108.496
  C       24.032      72.452    -107.552
  O       24.763      72.988    -106.420
  C       22.872      73.420    -107.740
  O       21.878      73.068    -108.676
  C       22.428      73.634    -106.303
  O       21.595      72.567    -105.851
  C       23.785      73.617    -105.555
  N       24.200      74.958    -105.149
  C       24.179      75.214    -103.783
  O       23.836      74.387    -102.939
  N       24.537      76.480    -103.407
  C       24.864      77.504    -104.248
  O       25.132      78.629    -103.844
  C       24.853      77.177    -105.681
  C       24.528      75.940    -106.063
  O       24.399      69.585    -109.427
  O       26.975      69.453    -109.690
  H       22.155      71.769    -105.776
  H       27.841      69.706    -109.322
  H       24.516      76.692    -102.422
  H       25.119      77.965    -106.374
  H       24.510      75.676    -107.115
  H       23.715      72.994    -104.655
  H       21.855      74.560    -106.187
  H       23.281      74.376    -108.093
  H       23.684      71.455    -107.269
  H       24.346      71.920    -109.609
  H       25.342      73.284    -109.080
  P       20.933      74.137    -109.404
  C       18.496      74.324    -108.544
  O       19.851      74.659    -108.343
  O       20.443      73.780    -110.768
  O       21.916      75.404    -109.520
  H       21.687      75.911    -110.322
  H       17.899      74.797    -107.757
  H       18.357      73.242    -108.484
  H       18.148      74.693    -109.512
  H       27.272      68.279    -106.060
  H       27.853      69.704    -106.888
  H       27.773      68.175    -107.730

 3  4  5  6  7  8  9  10  11  12  13  23  28  29  30  31  32 0
 6-311+G(2d,p)
 ****
 33  34 0
 6-311+G(2d,p)
 ****
 1  2  14  15  16  17  18  19  20  21  22  24  25  26  27 0
 3-21G
 ****
 35  36  37  38  39  40  41  42  43  44  45 0
 3-21G
 ****


