%nproc=1
%NoSave
%Mem=1900MB
#P OB98/GEN NMR

erre ene a

0 1
  C       24.499     145.545       4.496
  O       23.130     145.521       4.854
  H       25.095     145.670       5.403
  H       24.698     146.385       3.825
  H       24.778     144.605       4.014
  P       22.081     145.320       3.655
  C       21.985     147.905       3.797
  O       22.006     146.761       2.953
  C       21.014     148.951       3.256
  O       21.416     149.382       1.942
  C       19.579     148.459       3.109
  O       18.902     148.499       4.355
  C       19.026     149.487       2.134
  O       18.696     150.700       2.840
  C       20.222     149.737       1.195
  N       19.570     149.989      -3.890
  C       19.357     150.895      -2.912
  N       19.512     150.746      -1.580
  C       19.931     149.505      -1.284
  C       20.190     148.473      -2.175
  C       20.001     148.755      -3.539
  N       20.228     147.830      -4.534
  N       20.602     147.341      -1.506
  C       20.644     147.698      -0.238
  N       20.212     148.987      -0.048
  O       20.781     144.697       4.030
  O       22.965     144.479       2.617
  H       19.497     150.989       3.317
  H       23.883     144.800       2.610
  H       19.021     151.873      -3.244
  H       20.993     147.072       0.575
  H       20.307     150.794       0.921
  H       18.111     149.146       1.644
  H       19.540     147.468       2.645
  H       21.063     149.826       3.915
  H       22.989     148.335       3.881
  H       19.907     148.057      -5.463
  H       20.430     146.879      -4.262
  H       21.667     147.573       4.791
  P       17.770     147.418       4.703
  C       15.965     148.891       3.617
  O       16.599     147.617       3.623
  O       17.311     147.419       6.122
  O       18.412     146.014       4.287
  H       18.158     145.321       4.926
  H       15.207     148.908       2.862
  H       16.691     149.650       3.411
  H       15.521     149.073       4.573

 6  7  8  9  10  11  12  13  14  15  25  28  32  33  34  35 0
 6-311+G(2d,p)
 ****
 36  39  40 0
 6-311+G(2d,p)
 ****
 1  2  3  4  5  16  17  18  19  20  21  22  23  24 0
 3-21G
 ****
 26  27  29  30  31  37  38  41  42  43  44  45  46  47 0
 3-21G
 ****
 48 0
 3-21G
 ****


