%nproc=1
%NoSave
%Mem=1900MB
#P OB98/GEN NMR

erre ene a

0 1
  C       35.471     394.884     571.200
  O       34.470     394.270     570.392
  P       34.120     392.713     570.396
  C       33.022     392.369     572.749
  O       32.851     392.480     571.337
  C       31.872     393.054     573.540
  O       32.122     394.472     573.613
  C       30.549     392.867     572.821
  O       29.809     391.669     572.985
  C       29.748     394.142     573.130
  O       28.897     393.977     574.276
  C       30.848     395.166     573.428
  N       32.656     399.760     572.106
  C       32.675     399.145     573.344
  N       33.209     399.853     574.359
  N       32.198     397.932     573.542
  C       31.625     397.384     572.454
  C       31.517     397.904     571.191
  C       32.095     399.212     570.949
  O       32.089     399.821     569.862
  N       30.852     397.058     570.335
  C       30.524     396.033     571.104
  N       30.974     396.171     572.391
  O       35.292     391.784     570.581
  O       33.536     392.467     568.901
  H       28.190     393.366     574.041
  H       33.795     391.550     568.654
  H       33.043     400.698     571.984
  H       29.977     395.149     570.761
  H       30.646     395.703     574.389
  H       29.119     394.416     572.294
  H       33.471     400.819     574.277
  H       30.761     392.907     571.738
  H       33.029     399.474     575.315
  H       31.866     392.691     574.596
  H       33.976     392.838     572.986
  H       33.105     391.321     573.048
  P       29.091     390.816     571.818
  C       29.306     388.549     572.998
  O       28.405     389.521     572.484
  O       30.321     390.192     570.998
  O       28.185     391.621     570.901
  H       30.015     389.870     570.111
  H       28.758     387.611     573.149
  H       29.697     388.871     573.968
  H       30.139     388.371     572.285
  H       35.496     395.935     570.999
  H       36.425     394.455     570.974
  H       35.243     394.723     572.233

 3  4  5  6  7  8  9  10  11  12  23  26  30  31 0
 6-311+G(2d,p)
 ****
 33  35  36  37  38 0
 6-311+G(2d,p)
 ****
 1  2  13  14  15  16  17  18  19  20  21  22  24  25 0
 3-21G
 ****
 27  28  29  32  34  39  40  41  42  43  44  45  46  47  48  49 0
 3-21G
 ****


