%nproc=1
%NoSave
%Mem=1900MB
#P OB98/GEN NMR

erre ene a

0 1
  C      345.304     143.998     613.659
  O      345.472     143.644     612.289
  P      345.806     144.824     611.255
  C      344.322     146.443     609.819
  O      344.450     145.627     610.971
  C      342.975     147.186     609.817
  O      341.914     146.209     609.833
  C      342.720     148.079     611.032
  O      341.681     149.009     610.703
  C      342.207     147.081     612.047
  O      341.518     147.721     613.110
  C      341.357     146.129     611.174
  N      341.364     144.728     611.645
  C      340.504     144.379     612.688
  O      339.740     145.161     613.242
  N      340.575     143.075     613.112
  C      341.370     142.103     612.586
  O      341.456     140.978     613.057
  C      342.149     142.490     611.399
  C      342.117     143.763     611.001
  O      346.108     144.052     609.886
  O      346.954     145.679     611.679
  H      341.221     147.007     613.725
  H      347.060     144.047     609.708
  H      340.009     142.827     613.909
  H      342.745     141.729     610.909
  H      342.705     144.073     610.137
  H      340.305     146.458     611.138
  H      343.047     146.536     612.485
  H      343.601     148.615     611.395
  H      342.883     147.763     608.887
  H      344.418     145.830     608.916
  H      345.139     147.175     609.794
  P      341.909     150.552     611.080
  C      341.196     152.109     612.998
  O      341.042     150.830     612.399
  O      341.724     151.524     609.964
  O      343.413     150.566     611.636
  H      343.762     151.477     611.614
  H      340.264     152.369     613.498
  H      341.432     152.878     612.253
  H      341.998     152.061     613.737
  H      345.087     143.120     614.230
  H      344.495     144.692     613.751
  H      346.204     144.448     614.024

 3  4  5  6  7  8  9  10  11  12  13  23  28  29  30  31  32 0
 6-311+G(2d,p)
 ****
 33  34 0
 6-311+G(2d,p)
 ****
 1  2  14  15  16  17  18  19  20  21  22  24  25  26  27 0
 3-21G
 ****
 35  36  37  38  39  40  41  42  43  44  45 0
 3-21G
 ****


