%nproc=1
%NoSave
%Mem=1900MB
#P OB98/GEN NMR

erre ene a

0 1
  C       16.577     403.472    -312.619
  O       15.891     404.704    -312.630
  H       15.935     402.711    -313.071
  H       16.802     403.184    -311.586
  H       17.508     403.532    -313.193
  P       16.718     406.050    -312.367
  C       14.814     406.954    -310.871
  O       15.652     407.196    -311.990
  C       13.437     407.607    -311.056
  O       13.581     409.049    -310.994
  C       12.875     407.271    -312.441
  O       11.449     407.268    -312.452
  C       13.367     408.430    -313.298
  O       12.596     408.619    -314.482
  C       13.288     409.583    -312.298
  N       14.241     413.702    -315.146
  C       13.222     412.780    -315.254
  N       12.351     412.971    -316.273
  N       13.075     411.757    -314.454
  C       14.063     411.653    -313.529
  C       15.137     412.488    -313.334
  C       15.268     413.637    -314.207
  O       16.162     414.479    -314.169
  N       15.942     412.047    -312.315
  C       15.359     410.944    -311.894
  N       14.203     410.669    -312.593
  O       17.203     406.494    -313.830
  O       17.876     405.928    -311.420
  H       12.504     407.756    -314.910
  H       17.999     407.046    -313.768
  H       14.297     414.485    -315.777
  H       15.715     410.317    -311.087
  H       12.275     410.007    -312.276
  H       14.393     408.203    -313.613
  H       12.519     413.636    -317.017
  H       13.238     406.312    -312.810
  H       11.783     412.167    -316.545
  H       12.769     407.319    -310.243
  H       15.321     407.376    -309.994
  H       14.710     405.880    -310.699
  P       10.718     405.871    -312.160
  C        9.575     405.704    -314.518
  O        9.427     405.790    -313.110
  O       10.106     406.065    -310.690
  O       11.614     404.687    -312.240
  H       10.634     405.556    -310.043
  H        8.609     405.659    -314.976
  H       10.128     404.822    -314.765
  H       10.099     406.566    -314.875

 6  7  8  9  10  11  12  13  14  15  26  29  33  34 0
 6-311+G(2d,p)
 ****
 36  38  39  40  41 0
 6-311+G(2d,p)
 ****
 1  2  3  4  5  16  17  18  19  20  21  22  23  24  25 0
 3-21G
 ****
 27  28  30  31  32  35  37  42  43  44  45  46  47 0
 3-21G
 ****
 48  49 0
 3-21G
 ****


