%nproc=1
%NoSave
%Mem=1900MB
#P OB98/GEN NMR

erre ene a

0 1
  C     -952.740    -863.357    -189.993
  O     -953.508    -862.190    -189.781
  H     -952.004    -863.475    -189.187
  H     -953.402    -864.225    -189.993
  H     -952.225    -863.300    -190.958
  P     -952.709    -860.801    -189.706
  C     -952.587    -860.255    -192.249
  O     -951.899    -860.708    -191.089
  C     -951.665    -860.379    -193.458
  O     -950.351    -859.867    -193.140
  C     -951.453    -861.817    -193.924
  O     -952.506    -862.284    -194.745
  C     -950.164    -861.666    -194.708
  O     -950.437    -861.078    -195.992
  C     -949.372    -860.692    -193.827
  N     -944.650    -862.414    -192.831
  C     -945.171    -861.753    -193.898
  N     -946.423    -861.303    -194.069
  C     -947.189    -861.600    -193.012
  C     -946.808    -862.273    -191.859
  C     -945.469    -862.692    -191.789
  N     -944.954    -863.396    -190.725
  N     -947.875    -862.410    -190.995
  C     -948.882    -861.820    -191.613
  N     -948.524    -861.347    -192.846
  O     -951.557    -861.077    -188.632
  O     -953.530    -859.592    -189.389
  H     -949.579    -860.848    -196.391
  H     -951.155    -860.241    -188.343
  H     -944.468    -861.546    -194.703
  H     -949.883    -861.717    -191.218
  H     -948.727    -860.019    -194.419
  H     -949.670    -862.628    -194.900
  H     -951.274    -862.492    -193.076
  H     -952.073    -859.763    -194.270
  H     -952.871    -859.206    -192.109
  H     -944.023    -863.781    -190.837
  H     -945.575    -863.741    -190.014
  H     -953.486    -860.856    -192.398
  P     -953.148    -863.711    -194.372
  C     -955.656    -863.091    -194.072
  O     -954.419    -863.413    -193.434
  O     -952.078    -864.333    -193.360
  O     -953.402    -864.607    -195.551
  H     -952.049    -865.310    -193.439
  H     -956.406    -862.919    -193.329
  H     -955.956    -863.904    -194.700
  H     -955.532    -862.209    -194.665

 6  7  8  9  10  11  12  13  14  15  25  28  32  33  34  35 0
 6-311+G(2d,p)
 ****
 36  39  40 0
 6-311+G(2d,p)
 ****
 1  2  3  4  5  16  17  18  19  20  21  22  23  24 0
 3-21G
 ****
 26  27  29  30  31  37  38  41  42  43  44  45  46  47 0
 3-21G
 ****
 48 0
 3-21G
 ****


