%nproc=1
%NoSave
%Mem=1900MB
#P OB98/GEN NMR

erre ene a

0 1
  C      858.445    -295.563     949.907
  O      858.978    -296.683     949.217
  H      857.891    -295.931     950.785
  H      857.748    -295.022     949.258
  H      859.245    -294.906     950.242
  P      859.805    -296.366     947.878
  C      862.084    -296.001     949.069
  O      861.319    -296.807     948.174
  C      863.577    -296.190     948.807
  O      864.024    -297.475     949.299
  C      863.973    -296.128     947.333
  O      864.129    -294.779     946.907
  C      865.297    -296.889     947.334
  O      866.384    -296.056     947.788
  C      865.004    -298.006     948.363
  N      866.242    -301.911     945.411
  C      867.005    -300.868     945.858
  N      868.287    -300.814     945.427
  N      866.576    -299.922     946.660
  C      865.269    -300.092     947.000
  C      864.395    -301.095     946.631
  C      864.918    -302.135     945.758
  O      864.306    -303.122     945.381
  N      863.158    -300.917     947.190
  C      863.265    -299.785     947.863
  N      864.518    -299.235     947.763
  O      859.886    -294.763     947.866
  O      859.211    -296.898     946.626
  H      866.547    -295.361     947.133
  H      859.913    -294.454     946.938
  H      866.649    -302.604     944.804
  H      862.460    -299.332     948.436
  H      865.896    -298.266     948.937
  H      865.552    -297.242     946.352
  H      868.572    -301.282     944.567
  H      863.252    -296.666     946.706
  H      868.853    -300.028     945.727
  H      864.120    -295.423     949.389
  H      861.863    -296.311     950.094
  H      861.807    -294.956     948.933
  P      864.235    -294.511     945.325
  C      862.358    -292.736     944.998
  O      863.765    -293.005     945.070
  O      863.027    -295.377     944.718
  O      865.546    -294.887     944.713
  H      863.155    -295.508     943.759
  H      862.203    -291.692     944.825
  H      861.893    -293.017     945.920
  H      861.928    -293.298     944.196

 6  7  8  9  10  11  12  13  14  15  26  29  33  34 0
 6-311+G(2d,p)
 ****
 36  38  39  40  41 0
 6-311+G(2d,p)
 ****
 1  2  3  4  5  16  17  18  19  20  21  22  23  24  25 0
 3-21G
 ****
 27  28  30  31  32  35  37  42  43  44  45  46  47 0
 3-21G
 ****
 48  49 0
 3-21G
 ****


