%nproc=1
%NoSave
%Mem=1900MB
#P OB98/GEN NMR

erre ene a

0 1
  C       51.610     314.986      58.236
  O       52.740     314.201      58.588
  P       54.200     314.840      58.358
  C       55.163     313.059      56.714
  O       55.182     313.615      58.017
  C       55.914     311.727      56.687
  O       57.270     311.956      57.151
  C       55.310     310.628      57.572
  O       55.575     309.375      56.922
  C       56.133     310.725      58.843
  O       56.093     309.530      59.617
  C       57.502     311.074      58.271
  N       60.103     310.466      62.569
  C       59.264     309.587      61.910
  N       59.149     308.356      62.448
  N       58.597     309.891      60.827
  C       58.824     311.155      60.399
  C       59.600     312.127      60.983
  C       60.360     311.768      62.158
  O       61.182     312.490      62.722
  N       59.509     313.316      60.303
  C       58.742     313.040      59.266
  N       58.342     311.728      59.258
  O       54.632     315.276      59.836
  O       54.267     315.973      57.382
  H       56.586     309.694      60.448
  H       54.407     316.211      60.008
  H       60.607     310.172      63.391
  H       58.456     313.734      58.498
  H       58.045     310.191      57.908
  H       55.745     311.539      59.472
  H       59.655     308.043      63.264
  H       54.240     310.746      57.749
  H       58.566     307.680      61.968
  H       55.975     311.387      55.648
  H       55.653     313.754      56.026
  H       54.126     312.930      56.390
  P       54.324     308.431      56.586
  C       55.197     306.407      57.952
  O       54.829     306.913      56.685
  O       54.134     308.651      55.007
  O       53.071     308.759      57.327
  H       53.184     308.567      54.779
  H       55.124     305.314      57.938
  H       54.547     306.789      58.746
  H       56.233     306.688      58.167
  H       50.716     314.436      58.442
  H       51.651     315.222      57.193
  H       51.612     315.891      58.807

 3  4  5  6  7  8  9  10  11  12  23  26  30  31 0
 6-311+G(2d,p)
 ****
 33  35  36  37  38 0
 6-311+G(2d,p)
 ****
 1  2  13  14  15  16  17  18  19  20  21  22  24  25 0
 3-21G
 ****
 27  28  29  32  34  39  40  41  42  43  44  45  46  47  48  49 0
 3-21G
 ****


