%nproc=1
%NoSave
%Mem=1900MB
#P OB98/GEN NMR

erre ene a

0 1
  C      221.376     201.839     -29.088
  O      221.795     203.186     -29.193
  H      220.389     201.818     -28.619
  H      222.075     201.269     -28.471
  H      221.305     201.391     -30.085
  P      223.249     203.436     -29.831
  C      222.619     205.400     -31.376
  O      223.266     205.008     -30.171
  C      223.062     206.809     -31.786
  O      222.459     207.763     -30.878
  C      224.577     207.006     -31.732
  O      224.984     207.832     -32.825
  C      224.795     207.750     -30.427
  O      225.994     208.526     -30.433
  C      223.511     208.572     -30.320
  N      224.212     212.083     -26.684
  C      224.516     212.071     -27.998
  N      224.279     211.093     -28.903
  C      223.614     210.074     -28.335
  C      223.239     209.940     -27.008
  C      223.571     211.011     -26.158
  N      223.287     211.020     -24.814
  N      222.612     208.726     -26.801
  C      222.602     208.139     -27.986
  N      223.208     208.909     -28.939
  O      223.628     202.534     -30.953
  O      224.186     203.355     -28.534
  H      225.843     209.313     -30.996
  H      223.802     203.842     -27.784
  H      225.025     212.955     -28.375
  H      222.179     207.162     -28.199
  H      223.565     209.513     -30.883
  H      224.865     207.032     -29.598
  H      225.127     206.064     -31.758
  H      222.665     207.024     -32.786
  H      221.531     205.383     -31.243
  H      223.546     211.835     -24.275
  H      222.794     210.240     -24.404
  H      222.883     204.678     -32.153
  P      226.431     207.589     -33.467
  C      225.741     206.892     -35.861
  O      226.348     207.893     -35.045
  O      227.106     206.314     -33.096
  O      227.263     208.855     -32.929
  H      228.176     208.567     -32.729
  H      225.747     207.212     -36.882
  H      224.732     206.736     -35.542
  H      226.289     205.977     -35.770

 6  7  8  9  10  11  12  13  14  15  25  28  32  33  34  35 0
 6-311+G(2d,p)
 ****
 36  39  40 0
 6-311+G(2d,p)
 ****
 1  2  3  4  5  16  17  18  19  20  21  22  23  24 0
 3-21G
 ****
 26  27  29  30  31  37  38  41  42  43  44  45  46  47 0
 3-21G
 ****
 48 0
 3-21G
 ****


