%nproc=1
%NoSave
%Mem=1900MB
#P OB98/GEN NMR

erre ene a

0 1
  C      210.764     545.882    1462.125
  O      209.787     544.858    1462.075
  H      210.257     546.844    1462.236
  H      211.337     545.898    1461.198
  H      211.432     545.739    1462.978
  P      210.268     543.331    1462.079
  C      207.944     542.387    1462.690
  O      208.990     542.435    1461.720
  C      207.320     541.001    1462.700
  O      208.350     539.980    1462.644
  C      206.516     540.699    1463.967
  O      205.267     541.354    1463.964
  C      206.449     539.172    1463.903
  O      205.394     538.743    1463.022
  C      207.832     538.812    1463.317
  N      208.760     538.345    1464.352
  C      208.823     536.967    1464.543
  O      208.157     536.158    1463.878
  N      209.636     536.545    1465.555
  C      210.265     537.352    1466.468
  O      210.768     536.935    1467.494
  C      210.204     538.790    1466.185
  C      209.455     539.218    1465.165
  O      211.030     542.898    1463.291
  O      211.167     543.217    1460.756
  H      212.110     543.244    1461.010
  H      205.451     537.773    1462.982
  H      209.658     535.551    1465.727
  H      210.753     539.468    1466.839
  H      209.382     540.288    1464.949
  H      207.733     538.028    1462.553
  H      206.261     538.744    1464.883
  H      207.099     540.989    1464.850
  H      206.680     540.891    1461.806
  H      207.189     543.135    1462.423
  H      208.368     542.640    1463.678
  P      204.701     542.024    1465.306
  C      203.698     543.894    1463.856
  O      203.472     542.976    1464.916
  O      205.724     542.661    1466.182
  O      203.979     540.817    1466.061
  H      204.301     540.796    1466.991
  H      202.812     544.470    1463.688
  H      203.947     543.356    1462.965
  H      204.505     544.547    1464.116

 6  7  8  9  10  11  12  13  14  15  16  27  31  32  33  34  35 0
 6-311+G(2d,p)
 ****
 36  37 0
 6-311+G(2d,p)
 ****
 1  2  3  4  5  17  18  19  20  21  22  23  24  25 0
 3-21G
 ****
 26  28  29  30  38  39  40  41  42  43  44  45 0
 3-21G
 ****


