%nproc=1
%NoSave
%Mem=1900MB
#P OB98/GEN NMR

erre ene a

0 1
  C     1815.673     -88.047     516.193
  O     1816.937     -88.663     516.037
  P     1817.837     -88.168     514.794
  C     1817.820     -88.719     512.233
  O     1817.161     -88.771     513.490
  C     1817.320     -89.814     511.314
  O     1815.874     -89.695     511.110
  C     1817.919     -89.820     509.912
  O     1819.230     -90.317     509.894
  C     1816.893     -90.634     509.126
  O     1817.128     -92.041     509.385
  C     1815.573     -90.213     509.824
  N     1814.835     -89.216     509.009
  C     1813.685     -89.665     508.389
  O     1813.263     -90.814     508.452
  N     1812.992     -88.731     507.664
  C     1813.413     -87.420     507.428
  O     1812.776     -86.650     506.726
  C     1814.649     -87.025     508.086
  C     1815.298     -87.917     508.856
  O     1819.156     -89.061     515.025
  O     1818.108     -86.703     514.805
  H     1818.946     -89.919     515.492
  H     1818.094     -92.139     509.432
  H     1812.141     -89.011     507.218
  H     1814.997     -86.028     507.937
  H     1816.224     -87.656     509.334
  H     1814.931     -91.087     509.975
  H     1816.946     -90.446     508.053
  H     1817.921     -88.767     509.529
  H     1817.519     -90.788     511.806
  H     1818.901     -88.795     512.405
  H     1817.625     -87.716     511.782
  P     1820.130     -89.974     508.602
  C     1820.016     -90.705     506.073
  O     1819.602     -90.913     507.422
  O     1821.547     -90.598     508.996
  O     1820.177     -88.523     508.268
  H     1821.457     -91.491     509.432
  H     1819.838     -91.606     505.520
  H     1821.085     -90.429     506.018
  H     1819.422     -89.878     505.631
  H     1815.178     -88.460     517.047
  H     1815.081     -88.221     515.319
  H     1815.804     -86.994     516.331

 3  4  5  6  7  8  9  10  11  12  13  24  28  29  30  31  32 0
 6-311+G(2d,p)
 ****
 33  34 0
 6-311+G(2d,p)
 ****
 1  2  14  15  16  17  18  19  20  21  22  23  25  26  27 0
 3-21G
 ****
 35  36  37  38  39  40  41  42  43  44  45 0
 3-21G
 ****


