%nproc=1
%NoSave
%Mem=1900MB
#P OB98/GEN NMR

erre ene a

0 1
  C       92.765     720.281     -71.433
  O       92.839     719.379     -72.527
  P       93.365     719.958     -73.926
  C       91.427     718.643     -75.051
  O       92.816     718.959     -75.044
  C       91.037     717.957     -76.353
  O       91.074     718.907     -77.436
  C       91.964     716.827     -76.769
  O       91.693     715.664     -76.015
  C       91.644     716.700     -78.250
  O       90.516     715.829     -78.458
  C       91.299     718.150     -78.648
  N       92.329     718.761     -79.474
  C       92.038     718.843     -80.845
  O       90.975     718.393     -81.280
  N       92.983     719.394     -81.683
  C       94.103     719.817     -81.194
  N       94.997     720.359     -82.075
  C       94.455     719.732     -79.767
  C       93.528     719.194     -78.969
  O       94.932     719.651     -73.880
  O       93.079     721.411     -74.148
  H       90.386     715.796     -79.431
  H       95.430     720.278     -74.436
  H       95.405     720.102     -79.412
  H       93.705     719.092     -77.901
  H       90.352     718.180     -79.208
  H       92.481     716.275     -78.813
  H       93.013     717.127     -76.639
  H       90.001     717.594     -76.263
  H       94.731     720.395     -83.051
  H       90.843     719.560     -74.940
  H       95.887     720.738     -81.791
  H       91.211     717.993     -74.192
  P       92.939     714.842     -75.431
  C       91.834     712.573     -75.855
  O       92.313     713.478     -74.883
  O       93.257     715.635     -74.070
  O       94.143     714.723     -76.304
  H       94.077     715.289     -73.666
  H       91.581     711.624     -75.370
  H       92.596     712.382     -76.619
  H       90.932     712.973     -76.329
  H       92.401     719.765     -70.569
  H       92.100     721.083     -71.676
  H       93.739     720.675     -71.229

 3  4  5  6  7  8  9  10  11  12  13  21  23  27  28  29  30  32 0
 6-311+G(2d,p)
 ****
 34  35 0
 6-311+G(2d,p)
 ****
 1  2  14  15  16  17  18  19  20  22  24  25  26 0
 3-21G
 ****
 31  33  36  37  38  39  40  41  42  43  44  45  46 0
 3-21G
 ****


