%nproc=1
%NoSave
%Mem=1900MB
#P OB98/GEN NMR

erre ene a

0 1
  C      185.191    -138.947     -54.242
  O      186.428    -139.507     -54.642
  H      184.572    -139.740     -53.815
  H      184.664    -138.513     -55.097
  H      185.358    -138.182     -53.481
  P      187.404    -138.613     -55.550
  C      187.474    -140.452     -57.359
  O      188.230    -139.663     -56.446
  C      188.329    -141.557     -57.979
  O      189.247    -141.009     -58.948
  C      189.208    -142.297     -56.982
  O      188.511    -143.072     -56.036
  C      190.220    -142.970     -57.897
  O      189.726    -144.188     -58.451
  C      190.381    -141.906     -59.015
  N      191.641    -141.185     -58.917
  C      192.729    -141.765     -59.561
  O      192.665    -142.838     -60.168
  N      193.915    -141.090     -59.460
  C      194.124    -139.942     -58.753
  O      195.221    -139.395     -58.685
  C      192.947    -139.393     -58.058
  C      191.779    -140.030     -58.169
  O      188.267    -137.636     -54.808
  O      186.421    -137.932     -56.612
  H      190.408    -144.517     -59.069
  H      186.862    -137.172     -57.069
  H      194.711    -141.487     -59.936
  H      193.081    -138.491     -57.482
  H      190.896    -139.643     -57.672
  H      190.340    -142.386     -60.002
  H      191.155    -143.205     -57.382
  H      189.769    -141.548     -56.403
  H      187.660    -142.248     -58.508
  H      187.109    -139.790     -58.153
  H      186.611    -140.888     -56.839
  P      188.904    -143.159     -54.495
  C      189.298    -145.692     -53.976
  O      188.417    -144.576     -53.924
  O      188.655    -141.940     -53.665
  O      190.508    -143.365     -54.579
  H      190.898    -142.911     -53.807
  H      188.814    -146.549     -53.556
  H      190.184    -145.473     -53.418
  H      189.559    -145.894     -54.994

 6  7  8  9  10  11  12  13  14  15  16  26  31  32  33  34  35 0
 6-311+G(2d,p)
 ****
 36  37 0
 6-311+G(2d,p)
 ****
 1  2  3  4  5  17  18  19  20  21  22  23  24  25 0
 3-21G
 ****
 27  28  29  30  38  39  40  41  42  43  44  45 0
 3-21G
 ****


