%nproc=1
%NoSave
%Mem=1900MB
#P OB98/GEN NMR

erre ene a

0 1
  C      337.831    -326.869    -550.804
  O      337.847    -325.540    -551.274
  H      337.847    -327.546    -551.663
  H      336.926    -327.055    -550.217
  H      338.717    -327.059    -550.188
  P      337.724    -324.385    -550.165
  C      339.689    -323.293    -551.491
  O      339.151    -323.641    -550.224
  C      341.059    -322.641    -551.312
  O      341.992    -323.561    -550.706
  C      341.727    -322.197    -552.617
  O      341.196    -320.989    -553.139
  C      343.155    -322.023    -552.135
  O      343.259    -320.808    -551.359
  C      343.313    -323.273    -551.238
  N      343.841    -324.428    -551.959
  C      345.113    -324.286    -552.541
  O      345.735    -323.227    -552.433
  N      345.642    -325.343    -553.254
  C      344.967    -326.443    -553.360
  N      345.544    -327.448    -554.084
  C      343.638    -326.647    -552.762
  C      343.143    -325.613    -552.080
  O      337.802    -325.188    -548.780
  O      336.538    -323.480    -550.292
  H      343.162    -320.064    -551.989
  H      337.881    -324.551    -548.024
  H      343.114    -327.584    -552.884
  H      342.162    -325.687    -551.605
  H      343.969    -323.060    -550.384
  H      343.874    -321.946    -552.946
  H      341.696    -322.994    -553.366
  H      340.939    -321.788    -550.621
  H      346.430    -327.259    -554.535
  H      338.994    -322.598    -551.973
  H      345.044    -328.291    -554.354
  H      339.794    -324.188    -552.122
  P      340.400    -321.082    -554.534
  C      338.070    -319.990    -554.076
  O      338.831    -321.191    -554.170
  O      340.752    -322.546    -555.063
  O      340.750    -320.024    -555.533
  H      340.800    -322.566    -556.041
  H      337.056    -320.228    -553.830
  H      338.098    -319.476    -555.014
  H      338.484    -319.364    -553.314

 6  7  8  9  10  11  12  13  14  15  16  26  30  31  32  33  35 0
 6-311+G(2d,p)
 ****
 37  38 0
 6-311+G(2d,p)
 ****
 1  2  3  4  5  17  18  19  20  21  22  23  24  25 0
 3-21G
 ****
 27  28  29  34  36  39  40  41  42  43  44  45  46 0
 3-21G
 ****


