%nproc=1
%NoSave
%Mem=1900MB
#P OB98/GEN NMR

erre ene a

0 1
  C     -312.495      83.786     121.074
  O     -311.333      84.614     121.079
  P     -311.074      85.517     122.375
  C     -309.508      83.726     123.491
  O     -309.682      85.053     123.023
  C     -308.014      83.390     123.668
  O     -307.462      83.051     122.368
  C     -307.149      84.535     124.190
  O     -305.929      83.990     124.696
  C     -306.863      85.309     122.920
  O     -305.747      86.180     123.073
  C     -306.695      84.183     121.875
  N     -307.159      84.556     120.520
  C     -306.203      84.763     119.524
  O     -304.989      84.652     119.706
  N     -306.678      85.147     118.299
  C     -307.992      85.300     117.966
  O     -308.360      85.728     116.874
  C     -308.960      84.937     119.003
  C     -308.510      84.600     120.215
  O     -312.178      85.012     123.412
  O     -311.170      86.985     122.116
  H     -305.729      86.759     122.279
  H     -312.898      85.668     123.490
  H     -305.993      85.364     117.589
  H     -310.015      84.983     118.755
  H     -309.217      84.348     121.003
  H     -305.646      83.879     121.786
  H     -307.728      85.933     122.666
  H     -307.627      85.159     124.949
  H     -307.919      82.505     124.313
  H     -309.975      83.023     122.794
  H     -310.027      83.607     124.450
  P     -305.750      83.898     126.289
  C     -307.985      82.644     126.506
  O     -306.593      82.614     126.766
  O     -306.002      85.155     127.051
  O     -304.235      83.397     126.448
  H     -303.920      83.589     127.357
  H     -308.340      81.615     126.378
  H     -308.215      83.212     125.605
  H     -308.500      83.089     127.362
  H     -312.542      83.242     120.154
  H     -313.368      84.396     121.172
  H     -312.447      83.098     121.892

 3  4  5  6  7  8  9  10  11  12  13  23  28  29  30  31  32 0
 6-311+G(2d,p)
 ****
 33  34 0
 6-311+G(2d,p)
 ****
 1  2  14  15  16  17  18  19  20  21  22  24  25  26  27 0
 3-21G
 ****
 35  36  37  38  39  40  41  42  43  44  45 0
 3-21G
 ****


