%nproc=1
%NoSave
%Mem=1900MB
#P OB98/GEN NMR

erre ene a

0 1
  C        6.153    -146.205     138.349
  O        6.360    -144.846     138.672
  H        6.970    -146.542     137.706
  H        5.212    -146.313     137.803
  H        6.136    -146.823     139.251
  P        5.459    -144.228     139.845
  C        4.446    -142.452     138.255
  O        4.192    -143.525     139.146
  C        3.302    -141.437     138.304
  O        2.159    -141.990     137.601
  C        2.850    -141.085     139.727
  O        2.530    -139.692     139.779
  C        1.584    -141.907     139.908
  O        0.699    -141.343     140.875
  C        1.027    -141.920     138.489
  N       -3.733    -143.496     138.993
  C       -3.176    -142.251     139.216
  N       -4.012    -141.281     139.645
  N       -1.909    -141.981     139.034
  C       -1.200    -143.039     138.567
  C       -1.633    -144.318     138.313
  C       -3.033    -144.612     138.546
  O       -3.580    -145.699     138.390
  N       -0.602    -145.116     137.884
  C        0.450    -144.318     137.878
  N        0.137    -143.048     138.279
  O        6.335    -142.993     140.365
  O        5.125    -145.167     140.958
  H        0.391    -140.479     140.523
  H        6.611    -143.150     141.288
  H       -4.712    -143.651     139.162
  H        1.456    -144.608     137.605
  H        0.461    -141.009     138.252
  H        1.846    -142.920     140.235
  H       -5.006    -141.405     139.760
  H        3.602    -141.315     140.486
  H       -3.633    -140.350     139.779
  H        3.609    -140.538     137.756
  H        4.536    -142.849     137.237
  H        5.387    -141.964     138.530
  P        3.689    -138.698     140.276
  C        3.187    -138.614     142.817
  O        4.058    -139.074     141.794
  O        2.933    -137.293     140.410
  O        4.848    -138.607     139.341
  H        3.213    -136.696     139.691
  H        3.554    -138.936     143.769
  H        2.207    -139.014     142.658
  H        3.144    -137.545     142.794

 6  7  8  9  10  11  12  13  14  15  26  29  33  34 0
 6-311+G(2d,p)
 ****
 36  38  39  40  41 0
 6-311+G(2d,p)
 ****
 1  2  3  4  5  16  17  18  19  20  21  22  23  24  25 0
 3-21G
 ****
 27  28  30  31  32  35  37  42  43  44  45  46  47 0
 3-21G
 ****
 48  49 0
 3-21G
 ****


