%nproc=1
%NoSave
%Mem=1900MB
#P OB98/GEN NMR

erre ene a

0 1
  C      250.920    -137.878    -571.424
  O      249.880    -137.956    -570.462
  H      251.487    -138.814    -571.403
  H      251.593    -137.052    -571.178
  H      250.496    -137.735    -572.422
  P      248.920    -136.681    -570.349
  C      247.195    -137.614    -572.071
  O      248.129    -136.589    -571.739
  C      245.779    -137.033    -572.190
  O      245.789    -135.992    -573.211
  C      244.722    -138.062    -572.607
  O      243.453    -137.649    -572.049
  C      244.691    -137.890    -574.113
  O      243.556    -138.510    -574.676
  C      244.786    -136.370    -574.194
  N      243.170    -135.403    -578.942
  C      242.517    -135.834    -577.850
  N      243.013    -136.047    -576.611
  C      244.327    -135.760    -576.566
  C      245.124    -135.294    -577.595
  C      244.486    -135.118    -578.844
  N      245.159    -134.684    -579.977
  N      246.428    -135.117    -577.175
  C      246.412    -135.463    -575.897
  N      245.160    -135.860    -575.494
  O      249.938    -135.445    -570.408
  O      248.057    -136.630    -569.131
  H      243.578    -138.443    -575.647
  H      250.167    -135.155    -569.507
  H      241.457    -136.027    -577.971
  H      247.272    -135.446    -575.239
  H      243.846    -135.892    -573.912
  H      245.571    -138.359    -574.581
  H      244.941    -139.090    -572.272
  H      245.512    -136.545    -571.242
  H      247.222    -138.376    -571.278
  H      247.492    -138.080    -573.022
  H      244.621    -134.597    -580.832
  H      246.141    -134.488    -579.911
  P      242.575    -138.718    -571.218
  C      243.645    -138.525    -568.836
  O      243.472    -139.299    -570.014
  O      242.533    -139.959    -572.228
  O      241.194    -138.277    -570.859
  H      241.715    -140.475    -572.076
  H      244.265    -139.059    -568.146
  H      242.691    -138.339    -568.388
  H      244.110    -137.594    -569.086

 6  7  8  9  10  11  12  13  14  15  25  28  32  33  34  35 0
 6-311+G(2d,p)
 ****
 36  37  40 0
 6-311+G(2d,p)
 ****
 1  2  3  4  5  16  17  18  19  20  21  22  23  24 0
 3-21G
 ****
 26  27  29  30  31  38  39 41  42  43  44  45  46  47  48 0
 3-21G
 ****


