%nproc=1
%NoSave
%Mem=1900MB
#P OB98/GEN NMR

erre ene a

0 1
  C      148.207    -307.875     290.457
  O      146.919    -308.137     291.043
  P      145.596    -307.984     290.128
  C      144.185    -309.864     291.265
  O      144.298    -308.489     290.936
  C      142.890    -310.148     292.057
  O      143.016    -309.629     293.409
  C      141.624    -309.515     291.456
  O      140.531    -310.390     291.744
  C      141.484    -308.221     292.245
  O      140.182    -307.668     292.202
  C      141.923    -308.716     293.635
  N      142.306    -307.647     294.563
  C      141.618    -307.558     295.772
  O      140.678    -308.282     296.101
  N      142.045    -306.565     296.624
  C      143.031    -305.648     296.365
  O      143.332    -304.764     297.153
  C      143.695    -305.770     295.060
  C      143.311    -306.751     294.233
  O      145.804    -309.154     289.052
  O      145.439    -306.667     289.442
  H      139.869    -307.748     291.279
  H      145.611    -308.813     288.154
  H      141.571    -306.490     297.513
  H      144.478    -305.068     294.823
  H      143.791    -306.869     293.271
  H      141.117    -309.304     294.083
  H      142.173    -307.471     291.846
  H      141.700    -309.351     290.371
  H      142.776    -311.235     292.139
  H      145.044    -310.170     291.858
  H      144.183    -310.450     290.334
  P      139.808    -311.157     290.530
  C      138.560    -312.864     292.076
  O      138.477    -311.833     291.115
  O      140.802    -312.401     290.344
  O      139.646    -310.335     289.287
  H      141.050    -312.818     291.198
  H      139.344    -312.668     292.819
  H      138.774    -313.814     291.573
  H      137.598    -312.944     292.584
  H      148.970    -308.021     291.193
  H      148.240    -306.865     290.105
  H      148.369    -308.544     289.638

 3  4  5  6  7  8  9  10  11  12  13  23  28  29  30  31  32 0
 6-311+G(2d,p)
 ****
 33  34 0
 6-311+G(2d,p)
 ****
 1  2  14  15  16  17  18  19  20  21  22  24  25  26 0
 3-21G
 ****
 27  35  36  37  38  39  40  41  42  43  44  45 0
 3-21G
 ****


