%nproc=1
%NoSave
%Mem=1900MB
#P OB98/GEN NMR

erre ene a

0 1
  C      742.202    -247.292     156.341
  O      742.029    -245.877     156.170
  P      743.278    -244.892     155.954
  C      741.654    -242.880     156.057
  O      742.744    -243.495     155.361
  C      740.721    -242.140     155.103
  O      739.884    -243.071     154.379
  C      739.774    -241.152     155.779
  O      740.458    -239.949     156.105
  C      738.677    -241.019     154.727
  O      739.080    -240.097     153.699
  C      738.597    -242.441     154.169
  N      734.338    -245.102     153.197
  C      735.201    -244.457     152.382
  N      736.318    -243.766     152.723
  C      736.512    -243.804     154.050
  C      735.717    -244.417     155.007
  C      734.569    -245.094     154.536
  N      733.684    -245.746     155.364
  N      736.216    -244.216     156.272
  C      737.319    -243.500     156.088
  N      737.538    -243.233     154.759
  O      744.411    -245.490     155.181
  O      743.751    -244.502     157.435
  H      739.727    -240.561     153.128
  H      744.709    -244.300     157.436
  H      734.972    -244.499     151.326
  H      737.982    -243.178     156.865
  H      738.431    -242.436     153.081
  H      737.731    -240.649     155.148
  H      739.356    -241.600     156.687
  H      741.336    -241.627     154.357
  H      742.062    -242.182     156.791
  H      732.870    -246.169     154.957
  H      733.826    -245.692     156.360
  H      741.108    -243.675     156.591
  P      739.971    -239.050     157.334
  C      741.099    -236.990     156.283
  O      740.981    -237.809     157.437
  O      739.717    -239.779     158.604
  O      738.623    -238.362     156.785
  H      738.024    -238.184     157.533
  H      741.773    -237.476     155.563
  H      741.528    -236.025     156.573
  H      740.128    -236.829     155.820
  H      741.246    -247.755     156.469
  H      742.806    -247.476     157.205
  H      742.683    -247.700     155.477

 3  4  5  6  7  8  9  10  11  12  22  25  29  30  31  32 0
 6-311+G(2d,p)
 ****
 33  36  37 0
 6-311+G(2d,p)
 ****
 1  2  13  14  15  16  17  18  19  20  21  23  24  26 0
 3-21G
 ****
 27  28  34  35  38  39  40  41  42  43  44  45  46  47  48 0
 3-21G
 ****


