%nproc=1
%NoSave
%Mem=1900MB
#P OB98/GEN NMR

erre ene a

0 1
  C       86.762    -801.518     947.368
  O       85.445    -801.157     947.018
  H       87.387    -800.621     947.374
  H       87.159    -802.216     946.626
  H       86.794    -801.980     948.365
  P       84.280    -802.218     947.329
  C       84.222    -801.520     949.828
  O       84.391    -802.571     948.893
  C       82.807    -801.539     950.408
  O       82.624    -802.797     951.133
  C       82.511    -800.393     951.391
  O       81.148    -799.978     951.227
  C       82.643    -801.061     952.743
  O       81.928    -800.377     953.760
  C       82.102    -802.452     952.432
  N       80.487    -804.659     956.638
  C       79.807    -803.871     955.724
  N       78.532    -803.570     956.004
  N       80.360    -803.411     954.631
  C       81.648    -803.800     954.467
  C       82.426    -804.576     955.295
  C       81.811    -805.065     956.518
  O       82.356    -805.749     957.369
  N       83.696    -804.691     954.803
  C       83.705    -803.979     953.689
  N       82.475    -803.419     953.444
  O       84.822    -803.543     946.600
  O       82.923    -801.834     946.852
  H       82.024    -800.868     954.601
  H       84.428    -803.606     945.704
  H       80.022    -804.975     957.476
  H       84.555    -803.820     953.047
  H       81.000    -802.472     952.364
  H       83.697    -801.119     953.040
  H       78.028    -803.905     956.803
  H       83.181    -799.524     951.272
  H       78.008    -803.024     955.320
  H       82.085    -801.540     949.585
  H       84.382    -800.561     949.320
  H       84.967    -801.621     950.622
  P       80.838    -798.396     951.154
  C       80.452    -798.328     948.577
  O       81.217    -797.872     949.687
  O       81.984    -797.770     952.080
  O       79.475    -798.039     951.636
  H       81.637    -796.987     952.542
  H       80.831    -797.888     947.678
  H       79.429    -798.045     948.709
  H       80.522    -799.394     948.510

 6  7  8  9  10  11  12  13  14  15  26  29  33  34 0
 6-311+G(2d,p)
 ****
 36  38  39  40  41 0
 6-311+G(2d,p)
 ****
 1  2  3  4  5  16  17  18  19  20  21  22  23  24  25 0
 3-21G
 ****
 27  28  30  31  32  35  37  42  43  44  45  46  47 0
 3-21G
 ****
 48  49 0
 3-21G
 ****


