%nproc=1
%NoSave
%Mem=1900MB
#P OB98/GEN NMR

erre ene a

0 1
  C       67.561    -756.751    1038.503
  O       68.725    -757.422    1037.972
  P       70.220    -756.952    1038.278
  C       70.988    -759.172    1039.362
  O       70.781    -757.767    1039.542
  C       71.116    -759.904    1040.708
  O       69.990    -759.602    1041.550
  C       71.160    -761.421    1040.608
  O       72.417    -761.881    1040.161
  C       70.785    -761.815    1042.027
  O       71.948    -761.772    1042.883
  C       69.770    -760.728    1042.427
  N       68.396    -761.198    1042.359
  C       67.514    -760.667    1043.320
  O       67.918    -759.903    1044.183
  N       66.193    -761.044    1043.258
  C       65.803    -761.932    1042.385
  N       64.486    -762.257    1042.388
  C       66.718    -762.578    1041.432
  C       67.984    -762.166    1041.475
  O       70.381    -755.461    1038.398
  O       71.091    -757.516    1037.069
  H       71.627    -761.923    1043.799
  H       71.844    -756.914    1036.896
  H       66.365    -763.325    1040.744
  H       68.723    -762.577    1040.796
  H       69.981    -760.370    1043.440
  H       70.386    -762.838    1042.099
  H       70.365    -761.766    1039.921
  H       72.026    -759.529    1041.208
  H       63.879    -761.791    1043.054
  H       71.921    -759.304    1038.794
  H       64.079    -762.930    1041.754
  H       70.153    -759.586    1038.773
  P       72.688    -762.051    1038.582
  C       74.739    -760.510    1038.759
  O       73.519    -760.783    1038.090
  O       71.486    -762.397    1037.759
  O       73.777    -763.233    1038.520
  H       73.649    -763.738    1037.703
  H       75.380    -759.906    1038.111
  H       75.259    -761.447    1039.021
  H       74.533    -759.947    1039.680
  H       66.677    -757.246    1038.161
  H       67.552    -755.734    1038.169
  H       67.592    -756.775    1039.572

 3  4  5  6  7  8  9  10  11  12  13  23  27  28  29  30  32 0
 6-311+G(2d,p)
 ****
 34  35 0
 6-311+G(2d,p)
 ****
 1  2  14  15  16  17  18  19  20  21  22  24  25  26 0
 3-21G
 ****
 31  33  36  37  38  39  40  41  42  43  44  45  46 0
 3-21G
 ****


