%nproc=1
%NoSave
%Mem=1900MB
#P OB98/GEN NMR

erre ene a

0 1
  C      790.841    -627.269    -559.289
  O      792.111    -626.702    -559.011
  P      792.542    -625.392    -559.829
  C      793.045    -624.921    -562.343
  O      792.770    -625.893    -561.341
  C      793.638    -625.582    -563.596
  O      792.802    -626.681    -564.001
  C      793.730    -624.660    -564.794
  O      794.891    -623.831    -564.754
  C      793.863    -625.694    -565.921
  O      795.214    -626.189    -565.993
  C      792.920    -626.797    -565.444
  N      790.278    -626.702    -569.832
  C      791.597    -626.730    -569.580
  N      792.223    -626.741    -568.378
  C      791.320    -626.676    -567.374
  C      789.947    -626.595    -567.490
  C      789.408    -626.639    -568.785
  N      788.056    -626.635    -569.038
  N      789.357    -626.559    -566.237
  C      790.376    -626.613    -565.400
  N      791.593    -626.705    -566.025
  O      794.024    -625.105    -559.313
  O      791.642    -624.222    -559.676
  H      795.184    -626.985    -566.563
  H      794.247    -624.158    -559.456
  H      792.248    -626.753    -570.456
  H      790.283    -626.595    -564.311
  H      793.292    -627.807    -565.671
  H      793.623    -625.279    -566.902
  H      792.821    -624.086    -564.943
  H      794.629    -625.973    -563.316
  H      793.773    -624.199    -561.945
  H      787.762    -626.833    -569.983
  H      787.434    -626.793    -568.253
  H      792.114    -624.392    -562.597
  P      795.081    -622.810    -565.976
  C      795.145    -623.107    -568.576
  O      795.184    -623.720    -567.276
  O      796.578    -622.271    -565.769
  O      794.079    -621.717    -566.014
  H      796.689    -621.395    -566.158
  H      795.545    -623.815    -569.305
  H      795.789    -622.193    -568.583
  H      794.128    -622.847    -568.807
  H      790.692    -628.131    -558.672
  H      790.796    -627.556    -560.319
  H      790.076    -626.549    -559.086

 3  4  5  6  7  8  9  10  11  12  22  25  29  30  31  32 0
 6-311+G(2d,p)
 ****
 33  36  37 0
 6-311+G(2d,p)
 ****
 1  2  13  14  15  16  17  18  19  20  21  23  24  26 0
 3-21G
 ****
 27  28  34  35  38  39  40  41  42  43  44  45  46  47  48 0
 3-21G
 ****


