%nproc=1
%NoSave
%Mem=1900MB
#P OB98/GEN NMR

erre ene a

0 1
  C       53.493     412.271     482.003
  O       54.040     412.223     480.692
  P       53.039     412.468     479.460
  C       53.872     414.963     479.601
  O       52.801     414.053     479.397
  C       53.623     416.252     478.810
  O       53.684     415.978     477.393
  C       52.260     416.886     479.048
  O       52.206     417.583     480.284
  C       52.130     417.774     477.810
  O       52.869     418.993     477.991
  C       52.794     416.905     476.726
  N       51.833     416.199     475.879
  C       51.114     416.983     474.979
  O       51.262     418.197     474.880
  N       50.199     416.313     474.207
  C       49.899     414.984     474.289
  O       49.039     414.446     473.602
  C       50.666     414.216     475.281
  C       51.583     414.847     476.019
  O       51.680     411.875     480.059
  O       53.504     411.831     478.192
  H       51.661     411.929     481.033
  H       53.009     419.366     477.100
  H       49.685     416.856     473.531
  H       50.449     413.160     475.379
  H       52.152     414.301     476.756
  H       53.434     417.521     476.082
  H       51.092     418.048     477.594
  H       51.480     416.113     479.026
  H       54.425     416.963     479.047
  H       54.806     414.500     479.260
  H       53.958     415.181     480.671
  P       50.744     417.900     480.863
  C       50.594     415.393     481.594
  O       49.982     416.495     480.959
  O       50.063     418.635     479.613
  O       50.761     418.707     482.123
  H       50.269     418.205     478.768
  H       49.822     414.673     481.870
  H       51.132     415.699     482.495
  H       51.291     414.914     480.898
  H       54.267     412.092     482.719
  H       52.736     411.521     482.101
  H       53.064     413.236     482.175

 3  4  5  6  7  8  9  10  11  12  13  24  28  29  30  31  32 0
 6-311+G(2d,p)
 ****
 33  34 0
 6-311+G(2d,p)
 ****
 1  2  14  15  16  17  18  19  20  21  22  23  25  26  27 0
 3-21G
 ****
 35  36  37  38  39  40  41  42  43  44  45 0
 3-21G
 ****


