%nproc=1
%NoSave
%Mem=1900MB
#P OB98/GEN NMR

erre ene a

0 1
  C      -51.042    -104.157     -73.157
  O      -50.013    -105.034     -72.666
  P      -48.695    -105.404     -73.499
  C      -46.333    -106.176     -72.769
  O      -47.739    -106.285     -72.558
  C      -45.572    -106.291     -71.436
  O      -45.993    -105.234     -70.533
  C      -45.819    -107.577     -70.651
  O      -45.165    -108.690     -71.230
  C      -45.290    -107.178     -69.277
  O      -43.870    -107.350     -69.184
  C      -45.641    -105.679     -69.197
  N      -46.710    -105.395     -68.253
  C      -46.371    -105.441     -66.894
  O      -45.247    -105.792     -66.547
  N      -47.335    -105.096     -65.969
  C      -48.547    -104.843     -66.359
  N      -49.446    -104.495     -65.402
  C      -48.973    -104.910     -67.773
  C      -48.010    -105.183     -68.656
  O      -48.007    -104.224     -74.113
  O      -49.178    -106.438     -74.624
  H      -48.582    -106.387     -75.392
  H      -43.599    -107.023     -68.299
  H      -49.998    -104.726     -68.049
  H      -48.235    -105.239     -69.712
  H      -44.751    -105.098     -68.926
  H      -45.741    -107.781     -68.475
  H      -46.896    -107.760     -70.592
  H      -44.502    -106.165     -71.644
  H      -49.116    -104.443     -64.443
  H      -46.123    -105.200     -73.215
  H      -50.407    -104.252     -65.601
  H      -46.013    -106.961     -73.467
  P      -46.099    -109.842     -71.838
  C      -45.779    -112.390     -72.235
  O      -45.445    -111.253     -71.458
  O      -45.866    -109.725     -73.421
  O      -47.548    -109.713     -71.496
  H      -46.707    -109.869     -73.893
  H      -44.950    -113.102     -72.187
  H      -45.971    -112.127     -73.280
  H      -46.672    -112.862     -71.810
  H      -51.815    -104.067     -72.422
  H      -51.453    -104.559     -74.059
  H      -50.624    -103.192     -73.355

 3  4  5  6  7  8  9  10  11  12  13  24  27  28  29  30  32 0
 6-311+G(2d,p)
 ****
 34  35 0
 6-311+G(2d,p)
 ****
 1  2  14  15  16  17  18  19  20  21  22  23  25  26 0
 3-21G
 ****
 31  33  36  37  38  39  40  41  42  43  44  45  46 0
 3-21G
 ****


