%nproc=1
%NoSave
%Mem=1900MB
#P OB98/GEN NMR

erre ene a

0 1
  C     -418.573     -19.702      24.714
  O     -417.849     -19.808      25.949
  P     -416.392     -19.138      25.969
  C     -415.003     -21.225      25.298
  O     -415.459     -19.931      24.928
  C     -414.716     -22.105      24.083
  O     -413.621     -21.558      23.290
  C     -414.338     -23.543      24.430
  O     -414.863     -24.390      23.399
  C     -412.824     -23.533      24.329
  O     -412.291     -24.847      24.181
  C     -412.653     -22.621      23.106
  N     -409.851     -19.187      20.671
  C     -411.185     -19.548      20.501
  N     -411.866     -18.857      19.578
  N     -411.776     -20.501      21.178
  C     -410.961     -21.083      22.098
  C     -409.651     -20.815      22.376
  C     -408.988     -19.780      21.600
  O     -407.820     -19.423      21.714
  N     -409.171     -21.605      23.395
  C     -410.192     -22.398      23.692
  N     -411.317     -22.082      22.966
  O     -415.814     -19.553      27.405
  O     -416.413     -17.651      25.795
  H     -412.813     -25.305      23.491
  H     -415.901     -18.811      28.027
  H     -409.454     -18.462      20.114
  H     -410.187     -23.172      24.426
  H     -412.889     -23.142      22.162
  H     -412.383     -23.073      25.225
  H     -411.491     -18.069      19.061
  H     -414.695     -23.886      25.412
  H     -412.860     -19.055      19.461
  H     -415.613     -22.098      23.444
  H     -415.763     -21.714      25.927
  H     -414.111     -21.118      25.934
  P     -415.730     -25.673      23.840
  C     -413.573     -27.083      24.202
  O     -414.775     -26.575      24.761
  O     -415.835     -26.516      22.485
  O     -417.077     -25.356      24.395
  H     -416.721     -26.914      22.419
  H     -412.865     -27.241      25.019
  H     -413.146     -26.373      23.480
  H     -413.779     -28.027      23.711
  H     -419.524     -20.181      24.816
  H     -418.017     -20.177      23.933
  H     -418.717     -18.670      24.473

 3  4  5  6  7  8  9  10  11  12  23  26  30  31 0
 6-311+G(2d,p)
 ****
 33  35  36  37  38 0
 6-311+G(2d,p)
 ****
 1  2  13  14  15  16  17  18  19  20  21  22  24  25 0
 3-21G
 ****
 27  28  29  32  34  39  40  41  42  43  44  45  46  47  48  49 0
 3-21G
 ****


