%nproc=1
%NoSave
%Mem=1900MB
#P OB98/GEN NMR

erre ene a

0 1
  C     -926.807     789.131     270.924
  O     -926.931     788.386     269.726
  P     -926.333     789.026     268.382
  C     -927.274     790.067     266.211
  O     -927.561     789.577     267.503
  C     -928.577     790.386     265.457
  O     -929.287     789.169     265.163
  C     -929.530     791.293     266.244
  O     -930.249     792.145     265.336
  C     -930.534     790.325     266.828
  O     -931.774     790.959     267.142
  C     -930.622     789.275     265.710
  N     -934.739     786.400     266.270
  C     -934.556     787.543     265.514
  N     -935.665     788.043     264.904
  N     -933.409     788.157     265.378
  C     -932.398     787.556     266.054
  C     -932.450     786.405     266.829
  C     -933.724     785.755     266.986
  O     -933.971     784.757     267.655
  N     -931.225     786.104     267.331
  C     -930.422     787.075     266.912
  N     -931.110     788.002     266.157
  O     -925.850     787.713     267.569
  O     -925.194     789.976     268.595
  H     -931.571     791.768     267.651
  H     -924.868     787.656     267.596
  H     -935.641     785.973     266.352
  H     -929.361     787.163     267.132
  H     -931.266     789.627     264.886
  H     -930.137     789.883     267.755
  H     -936.600     787.649     265.008
  H     -929.052     791.911     267.011
  H     -935.576     788.908     264.373
  H     -928.309     790.855     264.491
  H     -926.724     789.318     265.644
  H     -926.657     790.968     266.277
  P     -930.240     793.714     265.665
  C     -931.719     795.156     267.265
  O     -931.149     793.896     266.987
  O     -931.119     794.354     264.494
  O     -928.867     794.307     265.753
  H     -930.848     795.289     264.348
  H     -932.805     795.074     267.221
  H     -931.385     795.939     266.554
  H     -931.420     795.454     268.268
  H     -927.247     788.584     271.731
  H     -927.308     790.070     270.814
  H     -925.771     789.302     271.132

 3  4  5  6  7  8  9  10  11  12  23  26  30  31 0
 6-311+G(2d,p)
 ****
 33  35  36  37  38 0
 6-311+G(2d,p)
 ****
 1  2  13  14  15  16  17  18  19  20  21  22  24  25 0
 3-21G
 ****
 27  28  29  32  34  39  40  41  42  43  44  45  46  47  48  49 0
 3-21G
 ****


