%nproc=1
%NoSave
%Mem=1900MB
#P OB98/GEN NMR

erre ene a

0 1
  C      -31.621     101.460    -393.135
  O      -32.033     101.839    -394.437
  H      -31.892     102.257    -392.437
  H      -30.537     101.322    -393.102
  H      -32.122     100.537    -392.828
  P      -31.743     100.834    -395.649
  C      -34.235     101.022    -396.307
  O      -32.882     101.116    -396.742
  C      -35.099     102.030    -397.058
  O      -35.000     103.335    -396.441
  C      -34.698     102.221    -398.523
  O      -35.238     101.182    -399.322
  C      -35.323     103.583    -398.806
  O      -36.743     103.433    -398.989
  C      -35.032     104.337    -397.496
  N      -32.701     108.664    -396.229
  C      -34.036     108.318    -396.150
  N      -34.881     109.281    -395.708
  N      -34.509     107.144    -396.490
  C      -33.559     106.311    -396.981
  C      -32.214     106.543    -397.125
  C      -31.692     107.823    -396.691
  O      -30.516     108.170    -396.730
  N      -31.575     105.484    -397.724
  C      -32.536     104.595    -397.903
  N      -33.763     105.060    -397.480
  O      -31.598      99.383    -395.289
  O      -30.419     101.421    -396.332
  H      -37.112     104.336    -399.010
  H      -29.616     101.005    -395.962
  H      -32.410     109.590    -395.968
  H      -32.396     103.607    -398.328
  H      -35.818     105.054    -397.244
  H      -34.927     104.059    -399.698
  H      -34.622     110.260    -395.704
  H      -33.603     102.312    -398.636
  H      -35.870     109.061    -395.683
  H      -36.148     101.709    -396.975
  H      -34.253     101.232    -395.233
  H      -34.617     100.014    -396.471
  P      -35.169     101.249    -400.927
  C      -34.257      98.936    -401.626
  O      -35.414      99.744    -401.415
  O      -33.935     101.896    -401.478
  O      -36.526     101.980    -401.353
  H      -36.455     102.969    -401.391
  H      -34.557      97.961    -401.948
  H      -33.706      98.856    -400.712
  H      -33.640      99.385    -402.376

 6  7  8  9  10  11  12  13  14  15  26  29  33  34 0
 6-311+G(2d,p)
 ****
 36  38  39  40  41 0
 6-311+G(2d,p)
 ****
 1  2  3  4  5  16  17  18  19  20  21  22  23  24  25 0
 3-21G
 ****
 27  28  30  31  32  35  37  42  43  44  45  46  47 0
 3-21G
 ****
 48  49 0
 3-21G
 ****


