%nproc=1
%NoSave
%Mem=1900MB
#P OB98/GEN NMR

erre ene a

0 1
  C     -413.392    1010.045     497.743
  O     -414.429    1010.825     498.309
  H     -413.848    1009.261     497.140
  H     -412.814    1009.582     498.528
  H     -412.759    1010.654     497.100
  P     -414.049    1012.160     499.113
  C     -416.586    1012.575     498.913
  O     -415.408    1012.762     499.704
  C     -417.814    1012.535     499.831
  O     -417.979    1013.818     500.516
  C     -419.127    1012.277     499.091
  O     -419.273    1010.923     498.702
  C     -420.136    1012.771     500.141
  O     -420.380    1011.738     501.113
  C     -419.394    1013.968     500.767
  N     -419.876    1015.252     500.260
  C     -420.989    1015.786     500.921
  O     -421.519    1015.252     501.908
  N     -421.485    1016.951     500.390
  C     -421.091    1017.528     499.211
  O     -421.713    1018.397     498.657
  C     -419.903    1016.929     498.574
  C     -419.375    1015.829     499.113
  O     -413.181    1013.129     498.368
  O     -413.307    1011.602     500.421
  H     -412.337    1011.698     500.307
  H     -420.781    1010.991     500.619
  H     -422.313    1017.331     500.848
  H     -419.502    1017.401     497.677
  H     -418.484    1015.376     498.658
  H     -419.518    1013.959     501.857
  H     -421.075    1013.025     499.684
  H     -419.184    1012.942     498.219
  H     -417.646    1011.750     500.614
  H     -416.495    1011.622     498.383
  H     -416.664    1013.403     498.190
  P     -419.407    1010.535     497.167
  C     -419.330    1007.983     497.484
  O     -420.110    1009.085     497.069
  O     -418.161    1010.682     496.346
  O     -420.539    1011.505     496.620
  H     -420.203    1011.958     495.797
  H     -419.898    1007.083     497.374
  H     -419.054    1008.108     498.510
  H     -418.447    1007.924     496.882

 6  7  8  9  10  11  12  13  14  15  16  27  31  32  33  34  35 0
 6-311+G(2d,p)
 ****
 36  37 0
 6-311+G(2d,p)
 ****
 1  2  3  4  5  17  18  19  20  21  22  23  24  25 0
 3-21G
 ****
 26  28  29  30  38  39  40  41  42  43  44  45 0
 3-21G
 ****


