%nproc=1
%NoSave
%Mem=1900MB
#P OB98/GEN NMR

erre ene a

0 1
  C       28.814      -6.420     -10.659
  O       28.393      -6.887      -9.392
  P       26.959      -6.487      -8.808
  C       24.518      -6.734      -9.540
  O       25.875      -6.754      -9.963
  C       23.609      -6.151     -10.621
  O       24.005      -4.778     -10.884
  C       23.642      -6.901     -11.960
  O       22.326      -6.813     -12.515
  C       24.601      -6.064     -12.789
  O       24.447      -6.267     -14.188
  C       24.229      -4.667     -12.305
  N       26.170      -1.422     -15.744
  C       25.148      -2.299     -15.814
  N       24.709      -3.148     -14.863
  C       25.441      -3.028     -13.744
  C       26.531      -2.200     -13.534
  C       26.887      -1.350     -14.596
  N       27.905      -0.425     -14.530
  N       27.056      -2.407     -12.272
  C       26.296      -3.338     -11.735
  N       25.269      -3.696     -12.564
  O       26.880      -5.135      -8.182
  O       26.642      -7.636      -7.741
  H       23.563      -5.949     -14.450
  H       26.743      -7.284      -6.835
  H       24.607      -2.320     -16.756
  H       26.442      -3.785     -10.762
  H       23.304      -4.302     -12.766
  H       25.634      -6.316     -12.522
  H       23.958      -7.945     -11.877
  H       22.585      -6.120     -10.226
  H       24.453      -6.114      -8.641
  H       27.987       0.222     -15.298
  H       28.274      -0.166     -13.617
  H       24.195      -7.749      -9.283
  P       21.800      -7.954     -13.509
  C       21.300     -10.453     -13.281
  O       22.013      -9.349     -12.754
  O       22.338      -7.889     -14.899
  O       20.207      -7.767     -13.482
  H       19.813      -8.218     -14.253
  H       20.268     -10.425     -12.922
  H       21.772     -11.378     -12.937
  H       21.303     -10.439     -14.375
  H       29.794      -6.794     -10.869
  H       28.834      -5.350     -10.656
  H       28.133      -6.762     -11.410

 3  4  5  6  7  8  9  10  11  12  22  25  29  30  31  32 0
 6-311+G(2d,p)
 ****
 33  36  37 0
 6-311+G(2d,p)
 ****
 1  2  13  14  15  16  17  18  19  20  21  23  24  26 0
 3-21G
 ****
 27  28  34  35  38  39  40  41  42  43  44  45  46  47  48 0
 3-21G
 ****


