%nproc=1
%NoSave
%Mem=1900MB
#P OB98/GEN NMR

erre ene a

0 1
  C       65.065     295.983     134.273
  O       64.985     297.272     133.701
  H       65.898     295.446     133.812
  H       64.143     295.429     134.079
  H       65.245     296.044     135.350
  P       63.964     298.334     134.328
  C       65.724     300.194     134.654
  O       64.539     299.788     133.985
  C       66.002     301.682     134.414
  O       66.211     301.889     132.983
  C       64.854     302.618     134.843
  O       65.451     303.863     135.229
  C       64.091     302.751     133.537
  O       63.131     303.776     133.573
  C       65.273     302.906     132.571
  N       64.948     302.767     131.158
  C       64.675     303.926     130.438
  O       64.694     305.063     130.909
  N       64.366     303.747     129.115
  C       64.319     302.553     128.456
  O       64.067     302.456     127.261
  C       64.609     301.363     129.271
  C       64.911     301.523     130.561
  O       63.601     298.118     135.759
  O       62.679     298.228     133.375
  H       61.988     297.697     133.814
  H       62.469     303.570     134.269
  H       64.168     304.575     128.578
  H       64.569     300.399     128.781
  H       65.139     300.664     131.185
  H       65.759     303.875     132.732
  H       63.539     301.830     133.332
  H       64.266     302.222     135.674
  H       66.940     301.952     134.913
  H       66.555     299.596     134.269
  H       65.615     300.000     135.726
  P       65.915     304.194     136.731
  C       68.162     304.801     135.597
  O       67.252     305.079     136.655
  O       66.041     302.989     137.603
  O       64.813     305.207     137.299
  H       64.771     305.132     138.271
  H       69.002     305.460     135.667
  H       67.672     304.947     134.657
  H       68.497     303.787     135.671

 6  7  8  9  10  11  12  13  14  15  16  27  31  32  33  34  35 0
 6-311+G(2d,p)
 ****
 36  37 0
 6-311+G(2d,p)
 ****
 1  2  3  4  5  17  18  19  20  21  22  23  24  25 0
 3-21G
 ****
 26  28  29  30  38  39  40  41  42  43  44  45 0
 3-21G
 ****


