%nproc=1
%NoSave
%Mem=1900MB
#P OB98/GEN NMR

erre ene a

0 1
  C     -265.282      -6.037    -100.966
  O     -264.095      -6.682    -101.406
  P     -262.967      -6.987    -100.304
  C     -261.480      -5.510     -98.771
  O     -262.379      -5.558     -99.876
  C     -260.423      -4.438     -98.989
  O     -259.609      -4.777    -100.131
  C     -260.979      -3.053     -99.287
  O     -261.375      -2.375     -98.103
  C     -259.767      -2.379     -99.923
  O     -258.875      -1.913     -98.895
  C     -259.125      -3.541    -100.702
  N     -258.224      -1.301    -105.161
  C     -257.695      -1.036    -103.916
  N     -256.770      -0.051    -103.850
  N     -258.033      -1.676    -102.827
  C     -258.941      -2.661    -103.047
  C     -259.541      -3.021    -104.237
  C     -259.191      -2.268    -105.424
  O     -259.680      -2.413    -106.544
  N     -260.398      -4.077    -104.063
  C     -260.286      -4.388    -102.786
  N     -259.436      -3.537    -102.122
  O     -261.779      -7.632    -101.170
  O     -263.392      -7.888     -99.192
  H     -258.099      -1.528     -99.341
  H     -261.230      -8.206    -100.601
  H     -257.911      -0.792    -105.965
  H     -260.794      -5.210    -102.305
  H     -258.033      -3.539    -100.587
  H     -260.030      -1.515    -100.538
  H     -256.370       0.384    -104.669
  H     -261.792      -3.099    -100.015
  H     -256.341       0.134    -102.948
  H     -259.774      -4.412     -98.103
  H     -260.986      -6.480     -98.665
  H     -262.053      -5.309     -97.859
  P     -262.765      -1.574     -98.165
  C     -263.616       0.430     -99.588
  O     -262.514      -0.371     -99.181
  O     -262.840      -0.862     -96.729
  O     -263.954      -2.433     -98.433
  H     -263.773      -0.693     -96.485
  H     -264.329       0.568     -98.771
  H     -264.120      -0.054    -100.434
  H     -263.248       1.407     -99.903
  H     -265.941      -5.897    -101.797
  H     -265.035      -5.086    -100.542
  H     -265.764      -6.642    -100.227

 3  4  5  6  7  8  9  10  11  12  23  26  30  31  33  0
 6-311+G(2d,p)
 ****
 35  36  37  38 0
 6-311+G(2d,p)
 ****
 1  2  13  14  15  16  17  18  19  20  21  22  24  25  27  28  29 0
 3-21G
 ****
 32  34  39  40  41  42  43  44  45  46  47  48  49 0
 3-21G
 ****


