%nproc=1
%NoSave
%Mem=1900MB
#P OB98/GEN NMR

erre ene a

0 1
  C     -300.425     338.891     226.342
  O     -301.501     338.102     226.826
  P     -301.210     337.157     228.087
  C     -301.640     334.954     226.765
  O     -300.716     335.745     227.511
  C     -301.052     333.570     226.502
  O     -300.058     333.643     225.459
  C     -300.342     332.944     227.699
  O     -301.273     332.450     228.645
  C     -299.519     331.869     226.994
  O     -300.339     330.731     226.680
  C     -299.089     332.591     225.702
  N     -294.361     332.578     223.735
  C     -295.459     331.844     223.444
  N     -296.676     331.887     224.027
  C     -296.702     332.812     225.004
  C     -295.656     333.617     225.429
  C     -294.441     333.477     224.742
  N     -293.319     334.220     225.041
  N     -296.046     334.427     226.470
  C     -297.313     334.127     226.666
  N     -297.763     333.168     225.792
  O     -302.674     336.841     228.657
  O     -300.327     337.762     229.137
  H     -299.816     330.152     226.087
  H     -302.658     336.752     229.629
  H     -295.354     331.123     222.636
  H     -297.954     334.576     227.418
  H     -299.098     331.922     224.828
  H     -298.678     331.508     227.601
  H     -299.683     333.674     228.174
  H     -301.866     332.917     226.155
  H     -301.845     335.440     225.809
  H     -292.448     333.954     224.612
  H     -293.339     334.790     225.883
  H     -302.580     334.885     227.322
  P     -300.732     332.164     230.126
  C     -301.245     329.657     229.876
  O     -300.240     330.635     230.059
  O     -302.097     332.057     230.957
  O     -299.740     333.149     230.633
  H     -302.737     331.477     230.520
  H     -300.778     328.675     229.798
  H     -301.802     329.855     228.959
  H     -301.925     329.656     230.739
  H     -300.755     339.469     225.505
  H     -299.622     338.252     226.040
  H     -300.087     339.547     227.117

 3  4  5  6  7  8  9  10  11  12  22  25  29  30  31  32 0
 6-311+G(2d,p)
 ****
 33  36  37 0
 6-311+G(2d,p)
 ****
 1  2  13  14  15  16  17  18  19  20  21  23  24  26 0
 3-21G
 ****
 27  28  34  35  38  39  40  41  42  43  44  45  46  47  48 0
 3-21G
 ****


