%nproc=1
%NoSave
%Mem=1900MB
#P OB98/GEN NMR

erre ene a

0 1
  C     -457.898    -693.767    -965.075
  O     -458.292    -693.023    -966.209
  H     -458.110    -693.182    -964.179
  H     -456.823    -693.986    -965.106
  H     -458.463    -694.697    -965.020
  P     -457.943    -693.597    -967.668
  C     -460.323    -694.588    -967.738
  O     -458.929    -694.838    -967.915
  C     -461.108    -695.900    -967.726
  O     -461.152    -696.418    -969.089
  C     -460.489    -696.986    -966.830
  O     -461.551    -697.714    -966.217
  C     -459.755    -697.859    -967.821
  O     -459.562    -699.169    -967.325
  C     -460.633    -697.762    -969.074
  N     -459.878    -698.067    -970.290
  C     -460.190    -699.282    -970.913
  O     -461.062    -700.031    -970.449
  N     -459.455    -699.660    -972.008
  C     -458.453    -698.925    -972.410
  N     -457.756    -699.380    -973.476
  C     -458.089    -697.648    -971.761
  C     -458.834    -697.284    -970.720
  O     -456.501    -693.871    -967.933
  O     -458.513    -692.465    -968.654
  H     -459.098    -699.707    -967.999
  H     -457.822    -691.811    -968.850
  H     -457.254    -697.069    -972.131
  H     -458.634    -696.364    -970.174
  H     -461.486    -698.455    -969.005
  H     -458.758    -697.420    -968.030
  H     -459.821    -696.575    -966.064
  H     -462.141    -695.686    -967.434
  H     -458.034    -700.276    -973.879
  H     -460.655    -693.959    -968.568
  H     -456.932    -698.913    -973.855
  H     -460.482    -694.053    -966.796
  P     -461.449    -698.167    -964.677
  C     -463.287    -696.591    -963.853
  O     -461.915    -696.947    -963.733
  O     -460.146    -698.780    -964.288
  O     -462.640    -699.231    -964.507
  H     -462.388    -699.890    -963.827
  H     -463.503    -695.777    -963.193
  H     -463.897    -697.431    -963.595
  H     -463.492    -696.297    -964.861

 6  7  8  9  10  11  12  13  14  15  16  26  30  31  32  33  35 0
 6-311+G(2d,p)
 ****
 37  38 0
 6-311+G(2d,p)
 ****
 1  2  3  4  5  17  18  19  20  21  22  23  24  25 0
 3-21G
 ****
 27  28  29  34  36  39  40  41  42  43  44  45  46 0
 3-21G
 ****


