%nproc=1
%NoSave
%Mem=1900MB
#P OB98/GEN NMR

erre ene a

0 1
  C      -10.691     388.734     141.140
  O      -10.698     387.877     142.290
  P      -11.200     388.347     143.740
  C       -9.909     386.598     145.147
  O      -11.180     387.069     144.713
  C      -10.053     385.714     146.389
  O      -10.782     386.415     147.423
  C      -10.838     384.429     146.182
  O      -10.111     383.459     145.453
  C      -11.146     384.032     147.625
  O      -10.053     383.308     148.212
  C      -11.300     385.400     148.317
  N      -12.669     385.691     148.699
  C      -13.271     384.808     149.602
  O      -12.676     383.795     149.971
  N      -14.540     385.088     150.047
  C      -15.190     386.097     149.556
  N      -16.434     386.334     150.050
  C      -14.642     386.972     148.503
  C      -13.391     386.717     148.127
  O      -12.508     389.067     143.725
  O      -10.032     389.282     144.309
  H      -10.405     389.915     144.950
  H       -9.230     383.727     147.890
  H      -15.232     387.778     148.090
  H      -12.904     387.322     147.368
  H      -10.660     385.451     149.206
  H      -12.030     383.393     147.699
  H      -11.776     384.659     145.661
  H       -9.044     385.488     146.764
  H      -16.774     385.720     150.777
  H       -9.286     387.465     145.400
  H      -17.014     387.106     149.752
  H       -9.429     386.053     144.331
  P      -10.893     382.690     144.282
  C      -10.204     380.191     144.129
  O       -9.936     381.525     143.740
  O      -10.919     383.754     143.085
  O      -12.273     382.248     144.649
  H      -11.779     383.709     142.628
  H       -9.831     379.518     143.353
  H      -11.276     380.016     144.264
  H       -9.681     379.976     145.063
  H      -10.314     388.195     140.296
  H      -10.066     389.581     141.330
  H      -11.688     389.065     140.936

 3  4  5  6  7  8  9  10  11  12  13  24  27  28  29  30  32 0
 6-311+G(2d,p)
 ****
 34  35 0
 6-311+G(2d,p)
 ****
 1  2  14  15  16  17  18  19  20  21  22  23  25  26 0
 3-21G
 ****
 31  33  36  37  38  39  40  41  42  43  44  45  46 0
 3-21G
 ****


