%nproc=1
%NoSave
%Mem=1900MB
#P OB98/GEN NMR

erre ene a

0 1
  C     -253.405    -853.093    -474.927
  O     -253.611    -854.432    -475.342
  P     -252.689    -855.598    -474.763
  C     -254.798    -856.602    -473.695
  O     -253.436    -856.238    -473.494
  C     -254.944    -858.126    -473.699
  O     -254.110    -858.702    -474.730
  C     -254.505    -858.797    -472.398
  O     -255.511    -858.635    -471.408
  C     -254.303    -860.235    -472.866
  O     -255.548    -860.939    -472.938
  C     -253.724    -860.027    -474.281
  N     -249.890    -862.731    -476.272
  C     -251.220    -862.922    -476.288
  N     -252.185    -862.172    -475.692
  C     -251.634    -861.153    -475.020
  C     -250.296    -860.853    -474.884
  C     -249.386    -861.685    -475.576
  N     -248.028    -861.463    -475.634
  N     -250.119    -859.738    -474.086
  C     -251.341    -859.383    -473.735
  N     -252.294    -860.171    -474.336
  O     -251.263    -855.220    -474.532
  O     -252.797    -856.751    -475.863
  H     -256.125    -860.446    -473.553
  H     -251.906    -856.934    -476.224
  H     -251.571    -863.784    -476.852
  H     -251.583    -858.547    -473.077
  H     -254.156    -860.736    -475.002
  H     -253.642    -860.797    -472.199
  H     -253.562    -858.377    -472.074
  H     -255.970    -858.359    -473.943
  H     -255.130    -856.194    -474.648
  H     -247.498    -862.031    -476.264
  H     -247.673    -860.541    -475.371
  H     -255.404    -856.167    -472.893
  P     -255.206    -859.093    -469.902
  C     -253.798    -857.072    -469.190
  O     -253.801    -858.463    -469.484
  O     -255.350    -860.557    -469.628
  O     -256.243    -858.247    -469.030
  H     -256.517    -858.761    -468.250
  H     -253.828    -856.496    -470.115
  H     -252.883    -856.833    -468.657
  H     -254.663    -856.815    -468.561
  H     -254.111    -852.455    -475.416
  H     -252.412    -852.789    -475.184
  H     -253.536    -853.024    -473.867

 3  4  5  6  7  8  9  10  11  12  22  25  29  30  31  32 0
 6-311+G(2d,p)
 ****
 33  36  37 0
 6-311+G(2d,p)
 ****
 1  2  13  14  15  16  17  18  19  20  21  23  24  26 0
 3-21G
 ****
 27  28  34  35  38  39  40  41  42  43  44  45  46  47  48 0
 3-21G
 ****


