%nproc=1
%NoSave
%Mem=1900MB
#P OB98/GEN NMR

erre ene a

0 1
  C      -36.639    -246.986     514.396
  O      -36.667    -248.022     513.406
  P      -36.834    -247.591     511.874
  C      -39.236    -246.606     511.707
  O      -38.385    -247.718     511.486
  C      -40.311    -246.534     510.619
  O      -39.775    -246.064     509.366
  C      -40.964    -247.879     510.318
  O      -42.000    -248.185     511.244
  C      -41.562    -247.613     508.943
  O      -42.801    -246.887     509.081
  C      -40.493    -246.724     508.293
  N      -39.456    -248.294     503.593
  C      -40.504    -247.523     504.065
  N      -41.400    -247.101     503.149
  N      -40.652    -247.194     505.318
  C      -39.670    -247.670     506.121
  C      -38.587    -248.443     505.774
  C      -38.437    -248.814     504.383
  O      -37.539    -249.501     503.909
  N      -37.811    -248.735     506.863
  C      -38.411    -248.127     507.869
  N      -39.557    -247.479     507.471
  O      -36.169    -248.818     511.086
  O      -36.179    -246.294     511.525
  H      -42.948    -246.423     508.233
  H      -35.817    -248.511     510.230
  H      -39.388    -248.520     502.616
  H      -38.062    -248.123     508.892
  H      -40.925    -245.946     507.655
  H      -41.795    -248.534     508.405
  H      -41.318    -247.273     502.156
  H      -40.214    -248.679     510.256
  H      -42.155    -246.508     503.467
  H      -41.086    -245.829     510.952
  H      -38.657    -245.678     511.716
  H      -39.679    -246.689     512.705
  P      -41.618    -249.078     512.522
  C      -43.256    -250.954     511.793
  O      -42.880    -250.026     512.790
  O      -41.670    -248.014     513.720
  O      -40.293    -249.753     512.440
  H      -41.026    -248.262     514.409
  H      -44.021    -251.619     512.206
  H      -42.403    -251.555     511.476
  H      -43.682    -250.428     510.930
  H      -36.523    -247.423     515.366
  H      -37.555    -246.434     514.360
  H      -35.818    -246.328     514.201

 3  4  5  6  7  8  9  10  11  12  23  26  30  31 0
 6-311+G(2d,p)
 ****
 33  35  36  37  38 0
 6-311+G(2d,p)
 ****
 1  2  13  14  15  16  17  18  19  20  21  22  24  25 0
 3-21G
 ****
 27  28  29  32  34  39  40  41  42  43  44  45  46  47  48  49 0
 3-21G
 ****


