%nproc=1
%NoSave
%Mem=1900MB
#P OB98/GEN NMR

erre ene a

0 1
  C      275.651      24.278     449.177
  O      275.590      23.260     448.194
  H      274.686      24.791     449.212
  H      276.430      25.004     448.927
  H      275.848      23.833     450.158
  P      276.926      22.406     447.961
  C      278.028      23.155     445.732
  O      277.894      23.390     447.130
  C      276.764      23.585     444.995
  O      276.207      24.765     445.600
  C      276.984      23.930     443.523
  O      276.968      22.745     442.735
  C      275.763      24.801     443.243
  O      274.616      23.958     443.002
  C      275.584      25.567     444.561
  N      274.610      30.603     444.244
  C      273.830      29.521     443.995
  N      274.173      28.210     444.047
  C      275.464      28.068     444.405
  C      276.368      29.079     444.682
  C      275.898      30.401     444.592
  N      276.691      31.504     444.836
  N      277.606      28.554     445.013
  C      277.424      27.248     444.992
  N      276.155      26.900     444.597
  O      276.734      21.040     447.393
  O      277.576      22.445     449.427
  H      274.888      23.292     442.344
  H      277.471      23.332     449.822
  H      272.803      29.731     443.715
  H      278.172      26.508     445.279
  H      274.527      25.677     444.827
  H      275.891      25.426     442.355
  H      277.889      24.521     443.372
  H      276.019      22.784     445.105
  H      278.225      22.089     445.548
  H      276.328      32.405     444.563
  H      277.678      31.349     444.978
  H      278.894      23.731     445.385
  P      277.711      22.695     441.307
  C      276.309      22.212     439.207
  O      276.592      23.143     440.241
  O      278.402      21.411     441.016
  O      278.705      23.949     441.333
  H      279.380      23.856     440.633
  H      275.555      22.613     438.562
  H      275.960      21.297     439.637
  H      277.199      22.024     438.643

 6  7  8  9  10  11  12  13  14  15  25  28  32  33  34  35 0
 6-311+G(2d,p)
 ****
 36  39  40 0
 6-311+G(2d,p)
 ****
 1  2  3  4  5  16  17  18  19  20  21  22  23  24 0
 3-21G
 ****
 26  27  29  30  31  37  38  41  42  43  44  45  46  47 0
 3-21G
 ****
 48 0
 3-21G
 ****


