%nproc=1
%NoSave
%Mem=1900MB
#P OB98/GEN NMR

erre ene a

0 1
  C       -3.803    -643.193    1034.298
  O       -4.523    -644.260    1034.935
  P       -3.669    -645.374    1035.703
  C       -4.372    -644.400    1038.017
  O       -3.310    -644.828    1037.167
  C       -4.161    -644.934    1039.437
  O       -4.224    -646.370    1039.467
  C       -2.801    -644.580    1040.007
  O       -2.776    -643.237    1040.454
  C       -2.649    -645.601    1041.131
  O       -3.183    -645.098    1042.370
  C       -3.483    -646.804    1040.627
  N       -2.660    -647.965    1040.327
  C       -2.126    -648.636    1041.432
  O       -2.349    -648.225    1042.579
  N       -1.338    -649.745    1041.205
  C       -1.085    -650.128    1039.996
  N       -0.296    -651.217    1039.839
  C       -1.604    -649.420    1038.799
  C       -2.379    -648.358    1039.042
  O       -2.256    -645.341    1034.942
  O       -4.274    -646.740    1035.669
  H       -3.061    -645.817    1043.022
  H       -1.856    -646.230    1034.937
  H       -1.359    -649.768    1037.807
  H       -2.802    -647.784    1038.222
  H       -4.224    -647.099    1041.377
  H       -1.602    -645.842    1041.324
  H       -2.019    -644.753    1039.250
  H       -4.956    -644.532    1040.085
  H        0.043    -651.670    1040.679
  H       -5.332    -644.750    1037.630
  H       -0.028    -651.589    1038.932
  H       -4.421    -643.307    1038.008
  P       -1.344    -642.540    1040.664
  C       -1.931    -640.287    1039.583
  O       -1.194    -641.502    1039.456
  O       -0.339    -643.713    1040.209
  O       -1.031    -642.033    1042.029
  H        0.588    -643.453    1040.389
  H       -1.583    -639.596    1038.809
  H       -1.770    -639.843    1040.572
  H       -2.999    -640.484    1039.427
  H       -4.495    -642.527    1033.827
  H       -3.142    -643.599    1033.561
  H       -3.236    -642.658    1035.031

 3  4  5  6  7  8  9  10  11  12  13  21  23  27  28  29  30  32 0
 6-311+G(2d,p)
 ****
 34  35 0
 6-311+G(2d,p)
 ****
 1  2  14  15  16  17  18  19  20  22  24  25  26 0
 3-21G
 ****
 31  33  36  37  38  39  40  41  42  43  44  45  46 0
 3-21G
 ****


