%nproc=1
%NoSave
%Mem=1900MB
#P OB98/GEN NMR

erre ene a

0 1
  C       -7.925     172.878     -88.150
  O       -7.479     174.237     -88.167
  P       -6.002     174.526     -87.610
  C       -4.404     174.542     -89.649
  O       -5.179     175.313     -88.743
  C       -4.024     175.355     -90.893
  O       -5.214     175.819     -91.592
  C       -3.179     176.594     -90.582
  O       -2.280     176.795     -91.680
  C       -4.201     177.713     -90.579
  O       -3.585     178.988     -90.753
  C       -5.112     177.252     -91.715
  N       -7.600     181.701     -91.409
  C       -6.285     181.402     -91.459
  N       -5.700     180.185     -91.517
  C       -6.632     179.219     -91.566
  C       -8.009     179.368     -91.515
  C       -8.494     180.684     -91.430
  N       -9.834     180.989     -91.352
  N       -8.632     178.136     -91.541
  C       -7.647     177.261     -91.601
  N       -6.425     177.868     -91.649
  O       -5.329     173.073     -87.595
  O       -5.979     175.152     -86.255
  H       -4.262     179.678     -90.584
  H       -5.235     172.760     -86.677
  H       -5.608     182.255     -91.444
  H       -7.765     176.188     -91.606
  H       -4.697     177.485     -92.704
  H       -4.741     177.722     -89.623
  H       -2.613     176.540     -89.646
  H       -3.475     174.698     -91.579
  H       -4.964     173.654     -89.960
  H      -10.098     181.956     -91.263
  H      -10.508     180.237     -91.319
  H       -3.515     174.169     -89.130
  P       -1.080     177.830     -91.443
  C        0.821     176.191     -90.785
  O        0.269     177.035     -91.777
  O       -1.037     178.000     -89.851
  O       -1.253     179.138     -92.143
  H       -0.651     178.865     -89.616
  H        1.190     175.279     -91.263
  H        0.087     175.916     -90.021
  H        1.659     176.705     -90.305
  H       -8.918     172.824     -88.545
  H       -7.921     172.514     -87.144
  H       -7.270     172.280     -88.749

 3  4  5  6  7  8  9  10  11  12  22  25  29  30  31  32 0
 6-311+G(2d,p)
 ****
 33  36  37 0
 6-311+G(2d,p)
 ****
 1  2  13  14  15  16  17  18  19  20  21  23  24  26 0
 3-21G
 ****
 27  28  34  35  38  39  40  41  42  43  44  45  46  47  48 0
 3-21G
 ****


