%nproc=1
%NoSave
%Mem=1900MB
#P OB98/GEN NMR

erre ene a

0 1
  C       43.638     494.929    -503.521
  O       42.693     495.977    -503.606
  H       43.543     494.449    -502.541
  H       44.653     495.329    -503.619
  H       43.458     494.178    -504.296
  P       42.548     496.784    -504.984
  C       42.970     499.281    -504.529
  O       43.552     498.037    -504.893
  C       43.856     500.441    -504.983
  O       45.045     500.469    -504.154
  C       44.302     500.343    -506.448
  O       44.317     501.658    -507.012
  C       45.726     499.819    -506.344
  O       46.523     500.197    -507.471
  C       46.194     500.435    -505.023
  N       51.222     499.999    -504.673
  C       50.451     500.956    -505.305
  N       51.117     501.937    -505.966
  N       49.142     500.956    -505.294
  C       48.611     499.933    -504.592
  C       49.260     498.914    -503.923
  C       50.713     498.921    -503.949
  O       51.448     498.091    -503.421
  N       48.368     498.046    -503.346
  C       47.185     498.526    -503.666
  N       47.271     499.665    -504.427
  O       41.149     497.140    -505.378
  O       43.247     495.831    -506.066
  H       46.174     499.711    -508.250
  H       42.576     495.336    -506.573
  H       52.227     500.040    -504.721
  H       46.227     498.088    -503.378
  H       46.570     501.460    -505.157
  H       45.713     498.726    -506.289
  H       52.119     502.009    -506.000
  H       43.662     499.686    -507.044
  H       50.572     502.658    -506.414
  H       43.323     501.381    -504.800
  H       42.860     499.302    -503.440
  H       41.977     499.366    -504.984
  P       43.151     502.068    -508.037
  C       44.468     501.437    -510.159
  O       43.314     501.184    -509.366
  O       42.982     503.537    -508.264
  O       41.839     501.439    -507.350
  H       41.069     501.988    -507.584
  H       44.464     500.790    -511.011
  H       45.347     501.255    -509.577
  H       44.460     502.456    -510.485

 6  7  8  9  10  11  12  13  14  15  26  29  33  34 0
 6-311+G(2d,p)
 ****
 36  38  39  40  41 0
 6-311+G(2d,p)
 ****
 1  2  3  4  5  16  17  18  19  20  21  22  23  24  25 0
 3-21G
 ****
 27  28  30  31  32  35  37  42  43  44  45  46  47 0
 3-21G
 ****
 48  49 0
 3-21G
 ****


