%nproc=1
%NoSave
%Mem=1900MB
#P OB98/GEN NMR

erre ene a

0 1
  C       -0.022      27.499      52.733
  O       -1.420      27.368      52.555
  H        0.423      26.501      52.738
  H        0.198      27.986      53.687
  H        0.415      28.072      51.911
  P       -2.317      28.695      52.553
  C       -2.871      28.581      50.031
  O       -2.216      29.301      51.069
  C       -3.294      29.531      48.914
  O       -2.140      30.151      48.315
  C       -4.061      28.859      47.775
  O       -5.425      28.691      48.121
  C       -3.860      29.879      46.666
  O       -4.738      31.002      46.877
  C       -2.398      30.306      46.890
  N        0.394      30.035      42.657
  C       -0.612      30.919      43.001
  N       -0.942      31.843      42.072
  N       -1.245      30.892      44.145
  C       -0.860      29.872      44.947
  C        0.110      28.924      44.711
  C        0.849      29.006      43.469
  O        1.765      28.255      43.137
  N        0.155      27.990      45.717
  C       -0.749      28.405      46.583
  N       -1.402      29.540      46.159
  O       -2.024      29.690      53.635
  O       -3.823      28.156      52.625
  H       -4.603      31.303      47.796
  H       -4.132      28.096      53.548
  H        0.840      30.099      41.759
  H       -0.970      27.927      47.532
  H       -2.234      31.360      46.640
  H       -4.082      29.478      45.674
  H       -0.597      31.820      41.122
  H       -3.591      27.914      47.479
  H       -1.716      32.462      42.283
  H       -3.892      30.335      49.366
  H       -3.747      28.093      50.471
  H       -2.208      27.809      49.625
  P       -6.327      27.541      47.451
  C       -5.730      25.819      49.289
  O       -5.661      26.157      47.913
  O       -6.523      27.677      45.980
  O       -7.681      27.556      48.298
  H       -8.332      28.227      47.971
  H       -5.248      24.877      49.449
  H       -6.755      25.751      49.589
  H       -5.239      26.574      49.867

 6  7  8  9  10  11  12  13  14  15  26  29  33  34 0
 6-311+G(2d,p)
 ****
 36  38  39  40  41 0
 6-311+G(2d,p)
 ****
 1  2  3  4  5  16  17  18  19  20  21  22  23  24  25 0
 3-21G
 ****
 27  28  30  31  32  35  37  42  43  44  45  46  47 0
 3-21G
 ****
 48  49 0
 3-21G
 ****


