%nproc=1
%NoSave
%Mem=1900MB
#P OB98/GEN NMR

erre ene a

0 1
  C       87.620    -110.841      82.740
  O       87.859    -110.107      83.943
  P       89.224    -109.269      84.016
  C       88.931    -107.505      82.130
  O       88.919    -107.773      83.527
  C       89.470    -106.100      81.869
  O       89.911    -105.942      80.503
  C       88.432    -105.005      82.083
  O       88.210    -104.777      83.465
  C       89.085    -103.843      81.345
  O       90.106    -103.239      82.159
  C       89.734    -104.550      80.143
  N       89.816    -103.342      75.172
  C       90.775    -103.321      76.123
  N       90.674    -103.655      77.426
  C       89.426    -104.058      77.717
  C       88.345    -104.137      76.853
  C       88.574    -103.752      75.521
  N       87.593    -103.760      74.556
  N       87.224    -104.594      77.516
  C       87.617    -104.763      78.763
  N       88.942    -104.464      78.931
  O       90.101    -109.886      82.829
  O       89.924    -109.375      85.332
  H       90.579    -102.590      81.601
  H       90.829    -110.421      83.196
  H       91.757    -102.988      75.794
  H       86.981    -105.098      79.574
  H       90.725    -104.145      79.909
  H       88.377    -103.055      81.071
  H       87.489    -105.277      81.594
  H       90.328    -105.934      82.535
  H       87.923    -107.599      81.718
  H       87.820    -103.393      73.646
  H       86.644    -103.980      74.825
  H       89.545    -108.264      81.634
  P       86.691    -104.681      83.971
  C       86.014    -107.159      83.998
  O       86.469    -106.060      84.766
  O       85.884    -104.925      82.615
  O       86.355    -103.438      84.721
  H       86.247    -105.671      82.106
  H       85.939    -108.033      84.649
  H       86.720    -107.375      83.192
  H       85.026    -106.942      83.582
  H       86.684    -111.354      82.815
  H       88.406    -111.552      82.594
  H       87.591    -110.166      81.910

 3  4  5  6  7  8  9  10  11  12  22  25  29  30  31  32 0
 6-311+G(2d,p)
 ****
 33  36  37 0
 6-311+G(2d,p)
 ****
 1  2  13  14  15  16  17  18  19  20  21  23  24  26 0
 3-21G
 ****
 27  28  34  35  38  39  40  41  42  43  44  45  46  47  48 0
 3-21G
 ****


