%nproc=1
%NoSave
%Mem=1900MB
#P OB98/GEN NMR

erre ene a

0 1
  C      585.801      27.757     337.831
  O      584.592      28.485     337.997
  P      583.964      28.532     339.478
  C      581.526      27.835     338.825
  O      582.402      28.853     339.289
  C      580.098      28.143     339.264
  O      579.956      27.936     340.685
  C      579.654      29.583     339.008
  O      579.241      29.727     337.656
  C      578.534      29.747     340.019
  O      577.301      29.162     339.527
  C      579.066      28.957     341.226
  N      578.893      30.795     345.932
  C      577.927      30.135     345.202
  N      576.762      29.899     345.830
  N      578.087      29.743     343.968
  C      579.304      30.058     343.453
  C      580.342      30.732     344.073
  C      580.165      31.107     345.462
  O      581.030      31.604     346.186
  N      581.414      30.888     343.224
  C      581.029      30.300     342.110
  N      579.767      29.759     342.204
  O      584.572      29.875     340.086
  O      584.248      27.328     340.319
  H      577.474      28.244     339.242
  H      585.343      29.676     340.652
  H      578.724      31.055     346.890
  H      581.635      30.216     341.221
  H      578.263      28.426     341.763
  H      578.311      30.797     340.232
  H      576.547      30.189     346.774
  H      580.465      30.282     339.243
  H      576.036      29.412     345.311
  H      579.425      27.439     338.766
  H      581.834      26.877     339.240
  H      581.581      27.787     337.731
  P      580.242      30.488     336.656
  C      578.526      32.316     335.971
  O      579.340      31.235     335.561
  O      580.931      29.284     335.837
  O      581.268      31.341     337.329
  H      581.860      29.505     335.657
  H      578.423      33.007     335.132
  H      578.968      32.864     336.817
  H      577.542      31.950     336.252
  H      586.108      27.805     336.807
  H      585.643      26.736     338.109
  H      586.562      28.182     338.452

 3  4  5  6  7  8  9  10  11  12  23  26  30  31 0
 6-311+G(2d,p)
 ****
 33  35  36  37  38 0
 6-311+G(2d,p)
 ****
 1  2  13  14  15  16  17  18  19  20  21  22  24  25 0
 3-21G
 ****
 27  28  29  32  34  39  40  41  42  43  44  45  46  47  48  49 0
 3-21G
 ****


