%nproc=1
%NoSave
%Mem=1900MB
#P OB98/GEN NMR

erre ene a

0 1
  C      -18.007     506.045     425.423
  O      -17.805     505.196     426.544
  P      -16.333     504.869     427.084
  C      -17.350     504.502     429.422
  O      -16.566     503.937     428.379
  C      -17.302     503.609     430.658
  O      -18.152     502.459     430.427
  C      -15.930     503.025     431.009
  O      -15.099     503.889     431.769
  C      -16.336     501.832     431.865
  O      -16.670     502.282     433.194
  C      -17.590     501.329     431.139
  N      -16.786     496.301     430.627
  C      -17.088     497.061     431.696
  N      -17.267     498.396     431.763
  C      -17.148     498.942     430.540
  C      -16.841     498.293     429.351
  C      -16.659     496.905     429.424
  N      -16.367     496.117     428.322
  N      -16.784     499.196     428.305
  C      -17.059     500.361     428.852
  N      -17.293     500.262     430.191
  O      -15.471     506.066     427.291
  O      -15.730     503.844     426.017
  H      -17.362     502.962     433.097
  H      -14.760     503.791     426.101
  H      -17.204     496.528     432.646
  H      -17.095     501.300     428.309
  H      -18.358     500.966     431.836
  H      -15.533     501.094     431.968
  H      -15.409     502.667     430.108
  H      -17.711     504.167     431.509
  H      -18.390     504.578     429.069
  H      -16.380     495.119     428.447
  H      -16.440     496.547     427.403
  H      -16.996     505.516     429.654
  P      -13.504     503.714     431.605
  C      -12.593     506.162     431.750
  O      -12.852     504.948     432.407
  O      -13.044     503.540     430.195
  O      -13.188     502.453     432.546
  H      -13.323     502.598     433.500
  H      -12.301     506.909     432.497
  H      -13.476     506.524     431.227
  H      -11.763     506.040     431.036
  H      -19.055     506.133     425.227
  H      -17.518     505.629     424.567
  H      -17.600     507.013     425.631

 3  4  5  6  7  8  9  10  11  12  22  25  29  30  31  32 0
 6-311+G(2d,p)
 ****
 33  36  37 0
 6-311+G(2d,p)
 ****
 1  2  13  14  15  16  17  18  19  20  21  23  24  26 0
 3-21G
 ****
 27  28  34  35  38  39  40  41  42  43  44  45  46  47  48 0
 3-21G
 ****


