%nproc=1
%NoSave
%Mem=1900MB
#P OB98/GEN NMR

erre ene a

0 1
  C      188.032    -954.711       2.861
  O      187.668    -955.833       3.643
  H      188.634    -954.038       3.474
  H      187.136    -954.181       2.534
  H      188.620    -955.021       1.993
  P      186.951    -957.044       2.875
  C      184.686    -956.703       4.099
  O      185.379    -956.713       2.863
  C      183.211    -956.374       3.877
  O      183.077    -955.044       3.322
  C      182.494    -957.313       2.911
  O      182.071    -958.508       3.554
  C      181.317    -956.448       2.511
  O      180.330    -956.452       3.560
  C      181.964    -955.063       2.390
  N      180.778    -953.032      -2.101
  C      179.999    -953.193      -0.964
  N      178.723    -952.766      -1.043
  N      180.433    -953.736       0.135
  C      181.723    -954.130       0.067
  C      182.599    -954.020      -0.992
  C      182.112    -953.410      -2.211
  O      182.758    -953.220      -3.236
  N      183.830    -954.530      -0.687
  C      183.706    -954.955       0.558
  N      182.446    -954.748       1.055
  O      187.054    -958.260       3.918
  O      187.548    -957.411       1.558
  H      179.617    -955.859       3.276
  H      187.191    -959.092       3.420
  H      180.389    -952.622      -2.938
  H      184.495    -955.426       1.133
  H      181.274    -954.252       2.679
  H      180.812    -956.806       1.607
  H      178.312    -952.386      -1.883
  H      183.109    -957.523       2.027
  H      178.148    -952.845      -0.223
  H      182.715    -956.378       4.852
  H      185.130    -955.951       4.756
  H      184.790    -957.688       4.566
  P      181.629    -959.736       2.613
  C      179.220    -959.602       3.580
  O      180.046    -959.582       2.417
  O      181.752    -960.995       3.594
  O      182.437    -959.904       1.370
  H      181.873    -961.805       3.074
  H      178.196    -959.490       3.292
  H      179.498    -958.798       4.229
  H      179.347    -960.533       4.091

 6  7  8  9  10  11  12  13  14  15  26  29  33  34 0
 6-311+G(2d,p)
 ****
 36  38  39  40  41 0
 6-311+G(2d,p)
 ****
 1  2  3  4  5  16  17  18  19  20  21  22  23  24  25 0
 3-21G
 ****
 27  28  30  31  32  35  37  42  43  44  45  46  47 0
 3-21G
 ****
 48  49 0
 3-21G
 ****


