%nproc=1
%NoSave
%Mem=1900MB
#P OB98/GEN NMR

erre ene a

0 1
  C     -475.887     139.217    -506.794
  O     -476.347     138.459    -507.899
  P     -477.264     137.156    -507.687
  C     -476.088     134.919    -508.232
  O     -476.240     135.988    -507.305
  C     -475.175     135.352    -509.376
  O     -474.046     136.081    -508.841
  C     -474.586     134.203    -510.186
  O     -475.544     133.659    -511.072
  C     -473.398     134.894    -510.843
  O     -473.830     135.657    -511.982
  C     -472.922     135.847    -509.726
  N     -471.775     135.327    -508.987
  C     -470.529     135.461    -509.605
  O     -470.413     135.999    -510.703
  N     -469.414     135.010    -508.938
  C     -469.539     134.451    -507.771
  N     -468.395     134.085    -507.126
  C     -470.840     134.239    -507.112
  C     -471.905     134.702    -507.769
  O     -478.177     136.841    -508.824
  O     -478.022     137.421    -506.303
  H     -474.079     135.010    -512.675
  H     -478.874     137.909    -506.408
  H     -470.895     133.756    -506.145
  H     -472.896     134.603    -507.340
  H     -472.659     136.822    -510.148
  H     -472.622     134.198    -511.182
  H     -474.226     133.412    -509.516
  H     -475.739     136.032    -510.031
  H     -467.524     134.407    -507.533
  H     -477.075     134.670    -508.636
  H     -468.381     133.916    -506.128
  H     -475.686     134.043    -507.717
  P     -475.421     132.106    -511.439
  C     -474.573     131.345    -513.773
  O     -474.266     132.008    -512.552
  O     -476.773     131.801    -512.233
  O     -475.242     131.204    -510.260
  H     -477.415     131.352    -511.656
  H     -473.788     131.573    -514.493
  H     -475.533     131.694    -514.170
  H     -474.601     130.267    -513.614
  H     -475.297     140.037    -507.145
  H     -475.292     138.596    -506.158
  H     -476.725     139.591    -506.244

 3  4  5  6  7  8  9  10  11  12  13  23  27  28  29  30  32 0
 6-311+G(2d,p)
 ****
 34  35 0
 6-311+G(2d,p)
 ****
 1  2  14  15  16  17  18  19  20  21  22  24  25  26 0
 3-21G
 ****
 31  33  36  37  38  39  40  41  42  43  44  45  46 0
 3-21G
 ****


