%nproc=1
%NoSave
%Mem=1900MB
#P OB98/GEN NMR

erre ene a

0 1
  C      120.708     145.449      10.113
  O      120.699     144.187      10.745
  H      120.552     145.306       9.041
  H      121.672     145.939      10.266
  H      119.903     146.078      10.506
  P      120.886     144.164      12.342
  C      118.680     142.800      12.567
  O      120.075     142.864      12.835
  C      118.241     141.345      12.372
  O      119.160     140.687      11.467
  C      118.210     140.541      13.674
  O      117.029     139.736      13.705
  C      119.453     139.672      13.603
  O      119.319     138.474      14.367
  C      119.617     139.474      12.092
  N      121.003     139.179      11.729
  C      121.394     137.838      11.767
  O      120.588     136.967      12.108
  N      122.694     137.517      11.475
  C      123.550     138.460      11.225
  N      124.829     138.077      10.964
  C      123.194     139.893      11.219
  C      121.917     140.178      11.472
  O      119.973     145.384      12.825
  O      122.298     144.235      12.818
  H      119.005     138.722      15.266
  H      120.157     145.622      13.766
  H      123.945     140.643      11.021
  H      121.564     141.204      11.491
  H      118.980     138.651      11.736
  H      120.309     140.232      14.001
  H      118.229     141.171      14.564
  H      117.261     141.343      11.880
  H      125.039     137.089      10.986
  H      118.465     143.372      11.662
  H      125.583     138.728      10.785
  H      118.132     143.238      13.409
  P      116.204     139.750      15.082
  C      114.306     141.417      14.493
  O      114.670     140.063      14.724
  O      116.710     141.083      15.808
  O      116.416     138.532      15.919
  H      117.385     140.872      16.477
  H      113.262     141.472      14.267
  H      114.870     141.802      13.669
  H      114.513     141.996      15.369

 6  7  8  9  10  11  12  13  14  15  16  26  30  31  32  33  35 0
 6-311+G(2d,p)
 ****
 37  38 0
 6-311+G(2d,p)
 ****
 1  2  3  4  5  17  18  19  20  21  22  23  24  25 0
 3-21G
 ****
 27  28  29  34  36  39  40  41  42  43  44  45  46 0
 3-21G
 ****


