%nproc=1
%NoSave
%Mem=1900MB
#P OB98/GEN NMR

erre ene a

0 1
  C      -58.603     141.164     -52.986
  O      -58.392     141.263     -54.400
  P      -59.646     141.642     -55.324
  C      -58.877     140.111     -57.283
  O      -59.238     141.417     -56.859
  C      -57.793     140.178     -58.363
  O      -58.270     140.826     -59.560
  C      -56.560     140.963     -57.944
  O      -55.678     140.172     -57.162
  C      -55.933     141.272     -59.295
  O      -55.212     140.120     -59.773
  C      -57.164     141.527     -60.172
  N      -59.028     145.128     -63.301
  C      -58.771     143.815     -63.489
  N      -58.258     142.926     -62.614
  C      -58.018     143.510     -61.430
  C      -58.228     144.836     -61.090
  C      -58.759     145.667     -62.089
  N      -59.021     147.003     -61.890
  N      -57.852     145.072     -59.784
  C      -57.437     143.904     -59.338
  N      -57.510     142.931     -60.298
  O      -59.721     143.236     -55.195
  O      -60.924     140.998     -54.902
  H      -54.493     139.949     -59.136
  H      -60.651     143.526     -55.226
  H      -59.008     143.426     -64.475
  H      -57.080     143.715     -58.335
  H      -57.042     141.130     -61.187
  H      -55.218     142.098     -59.248
  H      -56.841     141.895     -57.437
  H      -57.505     139.150     -58.618
  H      -59.755     139.584     -57.665
  H      -59.428     147.529     -62.645
  H      -58.844     147.405     -60.980
  H      -58.530     139.539     -56.416
  P      -55.184     140.786     -55.765
  C      -52.865     139.623     -55.635
  O      -54.188     139.699     -55.141
  O      -56.492     140.689     -54.847
  O      -54.664     142.181     -55.854
  H      -56.493     141.411     -54.189
  H      -52.255     139.069     -54.919
  H      -52.434     140.618     -55.766
  H      -52.859     139.091     -56.591
  H      -57.683     140.906     -52.505
  H      -59.333     140.408     -52.786
  H      -58.951     142.104     -52.611

 3  4  5  6  7  8  9  10  11  12  22  25  29  30  31  32 0
 6-311+G(2d,p)
 ****
 33  36  37 0
 6-311+G(2d,p)
 ****
 1  2  13  14  15  16  17  18  19  20  21  23  24  26 0
 3-21G
 ****
 27  28  34  35  38  39  40  41  42  43  44  45  46  47  48 0
 3-21G
 ****


