%nproc=1
%NoSave
%Mem=1900MB
#P OB98/GEN NMR

erre ene a

0 1
  C      -70.357    -213.856     728.515
  O      -69.618    -214.438     729.572
  H      -69.785    -213.022     728.102
  H      -71.317    -213.470     728.878
  H      -70.536    -214.590     727.725
  P      -70.316    -215.587     730.446
  C      -69.452    -214.587     732.673
  O      -70.587    -214.930     731.881
  C      -69.847    -213.566     733.737
  O      -70.262    -212.328     733.120
  C      -71.024    -214.020     734.594
  O      -70.611    -214.985     735.541
  C      -71.486    -212.689     735.165
  O      -70.661    -212.290     736.274
  C      -71.289    -211.742     733.957
  N      -72.514    -211.524     733.209
  C      -73.410    -210.595     733.756
  O      -73.141    -210.014     734.804
  N      -74.596    -210.369     733.099
  C      -74.867    -210.999     732.004
  N      -76.062    -210.731     731.411
  C      -73.949    -211.976     731.382
  C      -72.808    -212.193     732.040
  O      -69.624    -216.916     730.495
  O      -71.787    -215.696     729.813
  H      -69.757    -212.186     735.913
  H      -71.796    -216.352     729.084
  H      -74.215    -212.469     730.464
  H      -72.073    -212.889     731.650
  H      -70.909    -210.771     734.292
  H      -72.514    -212.741     735.521
  H      -71.822    -214.411     733.955
  H      -68.963    -213.354     734.354
  H      -76.672    -210.058     731.876
  H      -68.707    -214.154     731.997
  H      -76.341    -211.092     730.501
  H      -69.021    -215.476     733.143
  P      -71.651    -216.078     736.100
  C      -70.074    -216.519     738.092
  O      -71.387    -216.145     737.686
  O      -71.633    -217.386     735.391
  O      -73.059    -215.314     736.001
  H      -73.372    -215.257     735.068
  H      -70.020    -216.529     739.161
  H      -69.367    -215.815     737.706
  H      -69.848    -217.495     737.715

 6  7  8  9  10  11  12  13  14  15  16  26  30  31  32  33  35 0
 6-311+G(2d,p)
 ****
 37  38 0
 6-311+G(2d,p)
 ****
 1  2  3  4  5  17  18  19  20  21  22  23  24  25 0
 3-21G
 ****
 27  28  29  34  36  39  40  41  42  43  44  45  46 0
 3-21G
 ****


