%nproc=1
%NoSave
%Mem=1900MB
#P OB98/GEN NMR

erre ene a

0 1
  C       35.619     -50.995    -116.123
  O       35.507     -52.373    -115.819
  P       34.054     -52.925    -115.408
  C       34.510     -52.824    -112.852
  O       33.744     -52.337    -113.947
  C       33.682     -52.866    -111.567
  O       33.142     -51.547    -111.314
  C       32.516     -53.856    -111.608
  O       32.389     -54.437    -110.310
  C       31.310     -52.972    -111.871
  O       30.103     -53.575    -111.410
  C       31.716     -51.685    -111.134
  N       30.999     -50.516    -111.632
  C       29.684     -50.348    -111.190
  O       29.157     -51.205    -110.479
  N       28.983     -49.241    -111.602
  C       29.513     -48.433    -112.468
  N       28.779     -47.351    -112.845
  C       30.850     -48.645    -113.055
  C       31.538     -49.681    -112.581
  O       34.327     -54.477    -115.130
  O       32.992     -52.710    -116.435
  H       29.407     -52.882    -111.386
  H       33.544     -55.014    -115.361
  H       31.229     -47.961    -113.802
  H       32.538     -49.899    -112.935
  H       31.525     -51.780    -110.058
  H       31.214     -52.784    -112.947
  H       32.653     -54.644    -112.353
  H       34.355     -53.107    -110.735
  H       27.859     -47.238    -112.440
  H       35.360     -52.156    -112.689
  H       29.109     -46.668    -113.515
  H       34.900     -53.818    -113.095
  P       32.308     -56.036    -110.213
  C       29.803     -56.098    -109.652
  O       30.798     -56.400    -110.612
  O       32.283     -56.260    -108.625
  O       33.390     -56.840    -110.853
  H       32.298     -57.214    -108.426
  H       28.822     -56.266    -110.102
  H       29.875     -55.053    -109.341
  H       29.911     -56.757    -108.785
  H       36.633     -50.767    -116.378
  H       35.327     -50.417    -115.271
  H       34.982     -50.759    -116.950

 3  4  5  6  7  8  9  10  11  12  13  21  23  27  28  29  30  32 0
 6-311+G(2d,p)
 ****
 34  35 0
 6-311+G(2d,p)
 ****
 1  2  14  15  16  17  18  19  20  22  24  25  26 0
 3-21G
 ****
 31  33  36  37  38  39  40  41  42  43  44  45  46 0
 3-21G
 ****


