%nproc=1
%NoSave
%Mem=1900MB
#P OB98/GEN NMR

erre ene a

0 1
  C       90.701      98.315    -129.772
  O       92.100      98.294    -129.966
  H       90.217      98.516    -130.732
  H       90.417      99.103    -129.069
  H       90.356      97.346    -129.404
  P       93.056      98.178    -128.686
  C       92.303     100.542    -127.988
  O       92.467      99.189    -127.585
  C       93.086     101.480    -127.068
  O       92.597     101.308    -125.709
  C       94.598     101.220    -127.067
  O       95.270     102.478    -126.965
  C       94.792     100.409    -125.802
  O       96.119     100.505    -125.322
  C       93.721     100.986    -124.871
  N       93.367     100.036    -123.819
  C       94.235      99.965    -122.724
  O       95.230     100.689    -122.671
  N       93.997      99.032    -121.745
  C       93.011      98.201    -121.874
  N       92.854      97.278    -120.889
  C       92.085      98.221    -123.027
  C       92.317      99.155    -123.949
  O       94.520      98.321    -128.942
  O       92.704      96.739    -128.081
  H       96.249      99.862    -124.591
  H       93.293      96.062    -128.464
  H       91.281      97.504    -123.090
  H       91.696      99.237    -124.835
  H       94.072     101.915    -124.404
  H       94.585      99.351    -126.008
  H       94.939     100.682    -127.956
  H       92.866     102.515    -127.356
  H       93.528      97.288    -120.133
  H       91.235     100.782    -127.937
  H       92.150      96.556    -120.900
  H       92.642     100.664    -129.023
  P       95.806     103.225    -128.281
  C       97.608     101.439    -128.623
  O       96.538     102.154    -129.232
  O       96.600     104.463    -128.017
  O       94.466     103.582    -129.090
  H       94.611     104.396    -129.608
  H       98.028     100.755    -129.331
  H       97.239     100.896    -127.778
  H       98.361     102.128    -128.303

 6  7  8  9  10  11  12  13  14  15  16  26  30  31  32  33  35 0
 6-311+G(2d,p)
 ****
 37  38 0
 6-311+G(2d,p)
 ****
 1  2  3  4  5  17  18  19  20  21  22  23  24  25 0
 3-21G
 ****
 27  28  29  34  36  39  40  41  42  43  44  45  46 0
 3-21G
 ****


