%nproc=1
%NoSave
%Mem=1900MB
#P OB98/GEN NMR

erre ene a

0 1
  C       24.995    -118.638    -540.894
  O       26.075    -119.501    -540.607
  H       24.912    -118.501    -541.975
  H       24.071    -119.094    -540.528
  H       25.131    -117.668    -540.402
  P       27.556    -118.909    -540.783
  C       28.047    -118.743    -538.239
  O       27.856    -118.044    -539.463
  C       28.128    -117.762    -537.071
  O       26.844    -117.082    -536.944
  C       28.447    -118.416    -535.714
  O       29.321    -117.547    -534.989
  C       27.100    -118.452    -535.021
  O       27.212    -118.473    -533.604
  C       26.446    -117.184    -535.564
  N       22.391    -114.751    -533.698
  C       23.661    -114.347    -533.925
  N       24.669    -115.049    -534.478
  C       24.244    -116.260    -534.878
  C       22.984    -116.809    -534.719
  C       22.032    -115.996    -534.081
  N       20.757    -116.421    -533.784
  N       22.959    -118.100    -535.208
  C       24.187    -118.336    -535.623
  N       25.003    -117.255    -535.441
  O       27.348    -117.797    -541.919
  O       28.607    -119.899    -541.157
  H       27.557    -117.612    -533.300
  H       27.443    -118.210    -542.799
  H       23.901    -113.338    -533.609
  H       24.542    -119.275    -536.031
  H       26.782    -116.278    -535.042
  H       26.546    -119.348    -535.337
  H       28.900    -119.411    -535.802
  H       28.873    -116.995    -537.314
  H       28.982    -119.309    -538.293
  H       20.175    -115.814    -533.228
  H       20.504    -117.383    -533.962
  H       27.219    -119.444    -538.091
  P       30.790    -118.096    -534.650
  C       31.970    -116.587    -536.417
  O       31.716    -117.906    -535.942
  O       30.585    -119.680    -534.569
  O       31.360    -117.552    -533.378
  H       31.190    -120.070    -533.915
  H       32.601    -116.634    -537.280
  H       32.456    -116.019    -535.651
  H       31.044    -116.117    -536.677

 6  7  8  9  10  11  12  13  14  15  25  28  32  33  34  35 0
 6-311+G(2d,p)
 ****
 36  39  40 0
 6-311+G(2d,p)
 ****
 1  2  3  4  5  16  17  18  19  20  21  22  23  24 0
 3-21G
 ****
 26  27  29  30  31  37  38  41  42  43  44  45  46  47 0
 3-21G
 ****
 48 0
 3-21G
 ****


