%nproc=1
%NoSave
%Mem=1900MB
#P OB98/GEN NMR

erre ene a

0 1
  C      201.290    -715.373     -70.038
  O      200.074    -714.689     -70.252
  H      201.288    -715.790     -69.029
  H      202.138    -714.680     -70.123
  H      201.400    -716.183     -70.764
  P      199.892    -713.958     -71.666
  C      197.782    -715.359     -72.113
  O      199.086    -715.018     -72.563
  C      196.926    -715.883     -73.281
  O      196.634    -714.770     -74.162
  C      197.618    -716.967     -74.097
  O      196.661    -717.939     -74.503
  C      198.123    -716.221     -75.320
  O      198.277    -717.076     -76.457
  C      197.062    -715.140     -75.491
  N      198.909    -713.517     -79.964
  C      198.348    -714.693     -79.589
  N      197.864    -715.022     -78.367
  C      197.970    -713.998     -77.521
  C      198.525    -712.759     -77.743
  C      199.018    -712.524     -79.045
  N      199.615    -711.354     -79.430
  N      198.477    -711.971     -76.591
  C      197.892    -712.740     -75.693
  N      197.581    -713.970     -76.196
  O      201.151    -713.428     -72.282
  O      198.773    -712.863     -71.334
  H      198.266    -716.531     -77.265
  H      198.060    -713.237     -70.794
  H      198.275    -715.455     -80.352
  H      197.682    -712.458     -74.669
  H      196.176    -715.488     -76.047
  H      199.110    -715.766     -75.105
  H      198.431    -717.457     -73.556
  H      195.958    -716.234     -72.872
  H      197.289    -714.484     -71.658
  H      199.936    -711.273     -80.390
  H      199.686    -710.593     -78.761
  H      197.890    -716.133     -71.344
  P      196.672    -719.370     -73.766
  C      194.137    -719.316     -73.273
  O      195.447    -719.430     -72.724
  O      197.991    -719.819     -73.233
  O      196.172    -720.362     -74.933
  H      196.654    -721.202     -74.880
  H      193.414    -719.370     -72.486
  H      193.970    -720.114     -73.966
  H      194.043    -718.378     -73.780

 6  7  8  9  10  11  12  13  14  15  25  28  32  33  34  35 0
 6-311+G(2d,p)
 ****
 36  39  40 0
 6-311+G(2d,p)
 ****
 1  2  3  4  5  16  17  18  19  20  21  22  23  24 0
 3-21G
 ****
 26  27  29  30  31  37  38  41  42  43  44  45  46  47 0
 3-21G
 ****
 48 0
 3-21G
 ****


