%nproc=1
%NoSave
%Mem=1900MB
#P OB98/GEN NMR

erre ene a

0 1
  C     -318.350    -817.732    -106.979
  O     -317.600    -817.922    -108.164
  P     -317.477    -819.368    -108.841
  C     -318.622    -818.630    -111.014
  O     -317.444    -819.168    -110.434
  C     -318.904    -819.252    -112.388
  O     -317.966    -818.729    -113.361
  C     -318.789    -820.789    -112.401
  O     -319.823    -821.275    -113.268
  C     -317.423    -821.017    -113.027
  O     -317.298    -822.317    -113.601
  C     -317.355    -819.855    -114.016
  N     -315.995    -819.557    -114.437
  C     -315.765    -819.415    -115.807
  O     -316.665    -819.665    -116.608
  N     -314.526    -819.015    -116.228
  C     -313.556    -818.929    -115.369
  N     -312.354    -818.450    -115.821
  C     -313.701    -819.309    -113.951
  C     -314.935    -819.576    -113.546
  O     -318.468    -820.375    -108.364
  O     -315.976    -819.832    -108.505
  H     -316.000    -820.719    -108.076
  H     -316.489    -822.330    -114.160
  H     -312.830    -819.361    -113.305
  H     -315.157    -819.843    -112.517
  H     -317.954    -820.075    -114.912
  H     -316.647    -820.910    -112.262
  H     -318.898    -821.239    -111.419
  H     -319.908    -818.954    -112.696
  H     -312.306    -818.160    -116.787
  H     -318.471    -817.551    -111.141
  H     -311.660    -818.066    -115.178
  H     -319.469    -818.775    -110.340
  P     -320.752    -822.474    -112.736
  C     -322.775    -821.080    -113.616
  O     -322.174    -822.362    -113.479
  O     -321.120    -821.956    -111.253
  O     -320.131    -823.827    -112.655
  H     -321.333    -822.734    -110.693
  H     -323.756    -821.213    -114.082
  H     -322.158    -820.447    -114.254
  H     -322.898    -820.615    -112.644
  H     -318.307    -816.702    -106.691
  H     -317.942    -818.338    -106.197
  H     -319.368    -818.012    -107.152

 3  4  5  6  7  8  9  10  11  12  13  24  27  28  29  30  32 0
 6-311+G(2d,p)
 ****
 34  35 0
 6-311+G(2d,p)
 ****
 1  2  14  15  16  17  18  19  20  21  22  23  25  26 0
 3-21G
 ****
 31  33  36  37  38  39  40  41  42  43  44  45  46 0
 3-21G
 ****


