%nproc=1
%NoSave
%Mem=1900MB
#P OB98/GEN NMR

erre ene a

0 1
  C       93.255      69.050    -167.937
  O       92.527      69.648    -166.885
  H       92.579      68.881    -168.780
  H       93.670      68.087    -167.625
  H       94.060      69.713    -168.263
  P       93.245      69.857    -165.468
  C       91.925      67.744    -164.810
  O       93.153      68.449    -164.700
  C       91.876      66.581    -163.819
  O       92.669      65.485    -164.352
  C       92.422      66.935    -162.430
  O       91.632      66.256    -161.450
  C       93.825      66.362    -162.472
  O       94.318      66.099    -161.173
  C       93.651      65.128    -163.363
  N       94.920      64.730    -163.968
  C       95.605      63.679    -163.348
  O       95.131      63.129    -162.354
  N       96.841      63.318    -163.825
  C       97.375      63.984    -164.800
  N       98.618      63.600    -165.198
  C       96.700      65.119    -165.466
  C       95.489      65.431    -165.008
  O       92.794      71.034    -164.668
  O       94.797      69.963    -165.844
  H       93.786      65.385    -160.760
  H       95.040      70.895    -165.998
  H       97.190      65.645    -166.272
  H       94.923      66.256    -165.429
  H       93.256      64.283    -162.785
  H       94.502      67.081    -162.949
  H       92.424      68.010    -162.232
  H       90.841      66.221    -163.753
  H       99.048      62.835    -164.694
  H       91.848      67.359    -165.834
  H       99.149      64.068    -165.916
  H       91.088      68.427    -164.628
  P       90.806      67.085    -160.352
  C       92.423      66.855    -158.381
  O       91.836      67.755    -159.314
  O       89.685      66.332    -159.711
  O       90.237      68.343    -161.171
  H       89.391      68.627    -160.777
  H       93.089      67.392    -157.738
  H       92.968      66.100    -158.908
  H       91.654      66.396    -157.795

 6  7  8  9  10  11  12  13  14  15  16  26  30  31  32  33  35 0
 6-311+G(2d,p)
 ****
 37  38 0
 6-311+G(2d,p)
 ****
 1  2  3  4  5  17  18  19  20  21  22  23  24  25 0
 3-21G
 ****
 27  28  29  34  36  39  40  41  42  43  44  45  46 0
 3-21G
 ****


