%nproc=1
%NoSave
%Mem=1900MB
#P OB98/GEN NMR

erre ene a

0 1
  C      599.104    -120.107     513.085
  O      600.514    -120.151     513.167
  H      598.776    -119.079     513.262
  H      598.658    -120.754     513.847
  H      598.776    -120.417     512.090
  P      601.198    -121.591     512.992
  C      601.541    -121.181     510.469
  O      600.913    -121.985     511.460
  C      601.206    -121.699     509.072
  O      602.111    -122.790     508.753
  C      599.775    -122.237     508.944
  O      599.278    -121.929     507.641
  C      599.960    -123.742     509.062
  O      598.888    -124.468     508.472
  C      601.314    -123.928     508.387
  N      602.202    -128.759     507.045
  C      601.692    -127.710     506.365
  N      601.512    -126.441     506.795
  C      601.975    -126.300     508.050
  C      602.521    -127.273     508.866
  C      602.619    -128.562     508.317
  N      603.105    -129.647     509.011
  N      602.832    -126.744     510.105
  C      602.493    -125.468     510.029
  N      601.950    -125.163     508.812
  O      600.802    -122.620     513.996
  O      602.754    -121.217     512.967
  H      599.022    -125.421     508.653
  H      602.931    -120.461     512.380
  H      601.376    -127.913     505.343
  H      602.602    -124.741     510.827
  H      601.237    -123.961     507.291
  H      600.010    -124.024     510.123
  H      599.100    -121.844     509.701
  H      601.398    -120.902     508.343
  H      602.625    -121.187     510.612
  H      603.141    -130.535     508.539
  H      603.425    -129.523     509.959
  H      601.182    -120.154     510.592
  P      598.195    -120.762     507.477
  C      598.888    -119.468     505.360
  O      598.899    -119.496     506.779
  O      597.398    -120.444     508.696
  O      597.252    -121.316     506.305
  H      596.317    -121.128     506.532
  H      599.383    -118.583     505.017
  H      597.876    -119.469     505.011
  H      599.397    -120.330     504.982

 6  7  8  9  10  11  12  13  14  15  25  28  32  33  34  35 0
 6-311+G(2d,p)
 ****
 36  39  40 0
 6-311+G(2d,p)
 ****
 1  2  3  4  5  16  17  18  19  20  21  22  23  24 0
 3-21G
 ****
 26  27  29  30  31  37  38  41  42  43  44  45  46  47 0
 3-21G
 ****
 48 0
 3-21G
 ****


