%nproc=1
%NoSave
%Mem=1900MB
#P OB98/GEN NMR

erre ene a

0 1
  C     -170.704     318.624    -245.008
  O     -170.236     318.183    -243.750
  H     -171.771     318.849    -244.922
  H     -170.573     317.837    -245.754
  H     -170.180     319.532    -245.322
  P     -168.669     317.921    -243.554
  C     -167.170     315.868    -243.094
  O     -168.457     316.327    -243.484
  C     -166.985     314.393    -243.466
  O     -167.720     313.582    -242.509
  C     -167.497     314.041    -244.863
  O     -166.626     313.070    -245.451
  C     -168.852     313.418    -244.600
  O     -169.246     312.512    -245.632
  C     -168.634     312.746    -243.245
  N     -171.540     309.446    -240.751
  C     -170.280     309.290    -241.295
  N     -169.715     308.071    -241.175
  N     -169.632     310.247    -241.908
  C     -170.308     311.422    -241.935
  C     -171.557     311.703    -241.433
  C     -172.273     310.628    -240.777
  O     -173.398     310.703    -240.290
  N     -171.908     313.010    -241.677
  C     -170.875     313.514    -242.322
  N     -169.884     312.589    -242.516
  O     -168.035     318.683    -242.432
  O     -168.021     318.310    -244.963
  H     -168.441     312.015    -245.896
  H     -167.562     319.165    -244.911
  H     -171.996     308.675    -240.303
  H     -170.797     314.534    -242.674
  H     -168.192     311.746    -243.344
  H     -169.614     314.209    -244.530
  H     -170.146     307.295    -240.696
  H     -167.559     314.916    -245.514
  H     -168.777     307.935    -241.539
  H     -165.927     314.138    -243.354
  H     -167.072     315.992    -242.012
  H     -166.405     316.478    -243.591
  P     -165.814     313.448    -246.780
  C     -166.117     313.282    -249.327
  O     -166.617     312.892    -248.056
  O     -164.357     313.122    -246.759
  O     -166.041     315.038    -246.890
  H     -165.238     315.444    -247.263
  H     -166.727     312.856    -250.096
  H     -165.111     312.935    -249.436
  H     -166.137     314.349    -249.406

 6  7  8  9  10  11  12  13  14  15  26  29  33  34 0
 6-311+G(2d,p)
 ****
 36  38  39  40  41 0
 6-311+G(2d,p)
 ****
 1  2  3  4  5  16  17  18  19  20  21  22  23  24  25 0
 3-21G
 ****
 27  28  30  31  32  35  37  42  43  44  45  46  47 0
 3-21G
 ****
 48  49 0
 3-21G
 ****


