%nproc=1
%NoSave
%Mem=1900MB
#P OB98/GEN NMR

erre ene a

0 1
  C      -35.090     -78.003      69.384
  O      -33.850     -78.632      69.669
  P      -33.507     -78.937      71.207
  C      -32.730     -76.474      71.350
  O      -33.479     -77.517      71.958
  C      -32.809     -75.195      72.178
  O      -34.151     -74.645      72.063
  C      -32.517     -75.392      73.673
  O      -31.673     -74.326      74.134
  C      -33.877     -75.216      74.328
  O      -33.768     -74.789      75.681
  C      -34.508     -74.192      73.385
  N      -38.211     -71.942      75.979
  C      -36.860     -71.660      75.946
  N      -36.429     -70.674      76.766
  N      -36.004     -72.288      75.184
  C      -36.580     -73.227      74.394
  C      -37.906     -73.591      74.329
  C      -38.831     -72.928      75.224
  O      -40.022     -73.193      75.365
  N      -38.108     -74.573      73.393
  C      -36.910     -74.807      72.895
  N      -35.941     -74.050      73.505
  O      -31.965     -79.367      71.147
  O      -34.338     -79.994      71.848
  H      -33.190     -74.002      75.686
  H      -31.855     -80.250      71.548
  H      -38.823     -71.437      76.600
  H      -36.691     -75.534      72.122
  H      -34.060     -73.202      73.539
  H      -34.412     -76.172      74.304
  H      -37.039     -70.127      77.353
  H      -32.061     -76.355      73.919
  H      -35.446     -70.437      76.739
  H      -32.125     -74.456      71.742
  H      -33.131     -76.280      70.349
  H      -31.687     -76.794      71.255
  P      -30.729     -74.669      75.388
  C      -32.283     -73.309      76.975
  O      -31.664     -74.545      76.682
  O      -29.768     -73.392      75.487
  O      -29.970     -75.946      75.244
  H      -28.932     -73.628      75.930
  H      -32.173     -72.586      76.159
  H      -31.836     -72.891      77.880
  H      -33.348     -73.479      77.153
  H      -35.184     -77.862      68.327
  H      -35.129     -77.053      69.875
  H      -35.891     -78.619      69.735

 3  4  5  6  7  8  9  10  11  12  23  26  30  31  33  0
 6-311+G(2d,p)
 ****
 35  36  37  38 0
 6-311+G(2d,p)
 ****
 1  2  13  14  15  16  17  18  19  20  21  22  24  25  27  28  29 0
 3-21G
 ****
 32  34  39  40  41  42  43  44  45  46  47  48  49 0
 3-21G
 ****


