%nproc=1
%NoSave
%Mem=1900MB
#P OB98/GEN NMR

erre ene a

0 1
  C     -131.117    1115.988    -205.640
  O     -130.722    1114.654    -205.327
  P     -131.792    1113.630    -204.739
  C     -131.954    1111.691    -206.456
  O     -131.401    1112.148    -205.201
  C     -130.869    1111.085    -207.337
  O     -130.077    1112.073    -207.976
  C     -129.876    1110.209    -206.544
  O     -130.467    1108.992    -206.182
  C     -128.720    1110.111    -207.534
  O     -128.961    1109.090    -208.516
  C     -128.760    1111.523    -208.218
  N     -127.709    1112.415    -207.735
  C     -126.468    1112.301    -208.379
  O     -126.292    1111.429    -209.249
  N     -125.453    1113.106    -207.989
  C     -125.642    1114.002    -207.041
  N     -124.595    1114.797    -206.690
  C     -126.933    1114.143    -206.333
  C     -127.903    1113.341    -206.716
  O     -133.237    1114.000    -204.994
  O     -131.472    1113.599    -203.171
  H     -128.186    1109.107    -209.106
  H     -132.281    1113.427    -202.682
  H     -127.053    1114.899    -205.570
  H     -128.882    1113.385    -206.272
  H     -128.637    1111.422    -209.292
  H     -127.774    1109.885    -207.015
  H     -129.556    1110.756    -205.629
  H     -131.363    1110.473    -208.113
  H     -123.710    1114.676    -207.208
  H     -132.422    1112.532    -206.976
  H     -124.665    1115.548    -206.012
  H     -132.770    1110.971    -206.261
  P     -129.801    1108.192    -204.952
  C     -132.137    1107.166    -204.403
  O     -130.755    1106.922    -204.637
  O     -130.073    1109.172    -203.710
  O     -128.365    1107.853    -205.104
  H     -129.316    1109.079    -203.072
  H     -132.680    1106.207    -204.532
  H     -132.540    1107.886    -205.105
  H     -132.278    1107.531    -203.378
  H     -130.276    1116.529    -206.020
  H     -131.480    1116.469    -204.756
  H     -131.891    1115.967    -206.378

 3  4  5  6  7  8  9  10  11  12  13  23  27  28  29  30  32 0
 6-311+G(2d,p)
 ****
 34  35 0
 6-311+G(2d,p)
 ****
 1  2  14  15  16  17  18  19  20  21  22  24  25  26 0
 3-21G
 ****
 31  33  36  37  38  39  40  41  42  43  44  45  46 0
 3-21G
 ****


