%nproc=1
%NoSave
%Mem=1900MB
#P OB98/GEN NMR

erre ene a

0 1
  C     -399.147      57.565    -287.506
  O     -400.489      58.017    -287.491
  H     -398.562      58.140    -288.238
  H     -398.709      57.710    -286.514
  H     -399.115      56.495    -287.764
  P     -401.268      57.986    -288.893
  C     -401.047      59.352    -291.087
  O     -400.818      59.314    -289.685
  C     -401.841      60.588    -291.463
  O     -401.206      61.786    -290.939
  C     -401.983      60.843    -292.958
  O     -402.980      60.021    -293.540
  C     -402.387      62.301    -292.966
  O     -403.795      62.422    -292.687
  C     -401.577      62.887    -291.800
  N     -399.660      67.170    -293.915
  C     -400.934      66.776    -293.644
  N     -401.367      65.620    -293.095
  C     -400.334      64.828    -292.791
  C     -398.984      65.061    -293.019
  C     -398.659      66.308    -293.613
  N     -397.355      66.673    -293.905
  N     -398.211      64.018    -292.576
  C     -399.070      63.153    -292.088
  N     -400.373      63.583    -292.213
  O     -402.789      58.291    -288.477
  O     -401.152      56.713    -289.659
  H     -404.030      61.685    -292.080
  H     -403.381      57.789    -289.064
  H     -401.697      67.497    -293.906
  H     -398.798      62.197    -291.644
  H     -402.180      63.567    -291.188
  H     -402.204      62.803    -293.917
  H     -401.010      60.733    -293.465
  H     -402.843      60.519    -290.991
  H     -401.612      58.464    -291.398
  H     -397.177      67.640    -294.142
  H     -396.607      66.035    -293.662
  H     -400.072      59.354    -291.603
  P     -402.602      59.244    -294.906
  C     -401.632      60.045    -297.175
  O     -402.342      60.405    -295.993
  O     -403.992      58.610    -295.361
  O     -401.522      58.205    -294.769
  H     -403.834      57.824    -295.919
  H     -401.530      60.904    -297.805
  H     -402.171      59.282    -297.696
  H     -400.662      59.679    -296.911

 6  7  8  9  10  11  12  13  14  15  25  28  32  33  34  35 0
 6-311+G(2d,p)
 ****
 36  39  40 0
 6-311+G(2d,p)
 ****
 1  2  3  4  5  16  17  18  19  20  21  22  23  24 0
 3-21G
 ****
 26  27  29  30  31  37  38  41  42  43  44  45  46  47  48 0
 3-21G
 ****


