%nproc=1
%NoSave
%Mem=1900MB
#P OB98/GEN NMR

erre ene a

0 1
  C     -849.354    1078.137     511.092
  O     -848.485    1078.870     511.935
  H     -849.532    1077.154     511.552
  H     -848.887    1077.986     510.116
  H     -850.310    1078.653     510.987
  P     -848.227    1080.403     511.539
  C     -846.112    1079.779     510.109
  O     -846.660    1080.506     511.196
  C     -845.103    1080.639     509.354
  O     -845.786    1081.761     508.753
  C     -843.971    1081.202     510.236
  O     -842.758    1081.230     509.468
  C     -844.430    1082.616     510.522
  O     -843.340    1083.473     510.863
  C     -845.148    1082.971     509.195
  N     -846.090    1084.072     509.351
  C     -845.560    1085.363     509.444
  O     -844.343    1085.539     509.415
  N     -846.416    1086.419     509.613
  C     -847.689    1086.209     509.756
  N     -848.480    1087.296     509.928
  C     -848.289    1084.852     509.696
  C     -847.445    1083.852     509.487
  O     -848.361    1081.132     512.957
  O     -849.142    1080.935     510.486
  H     -843.688    1084.371     511.031
  H     -847.892    1080.678     513.680
  H     -849.349    1084.729     509.822
  H     -847.805    1082.830     509.417
  H     -844.412    1083.262     508.427
  H     -845.147    1082.637     511.346
  H     -843.813    1080.618     511.149
  H     -844.691    1080.039     508.526
  H     -848.026    1088.204     509.990
  H     -846.904    1079.457     509.429
  H     -849.479    1087.246     510.107
  H     -845.631    1078.889     510.525
  P     -841.917    1079.883     509.301
  C     -839.888    1080.685     510.709
  O     -840.353    1080.230     509.428
  O     -842.277    1079.029     508.117
  O     -842.207    1079.086     510.651
  H     -842.329    1078.146     510.438
  H     -838.837    1080.880     510.658
  H     -840.076    1079.931     511.445
  H     -840.405    1081.583     510.978

 6  7  8  9  10  11  12  13  14  15  16  26  30  31  32  33  35 0
 6-311+G(2d,p)
 ****
 37  38 0
 6-311+G(2d,p)
 ****
 1  2  3  4  5  17  18  19  20  21  22  23  24  25 0
 3-21G
 ****
 27  28  29  34  36  39  40  41  42  43  44  45  46 0
 3-21G
 ****


