%nproc=1
%NoSave
%Mem=1900MB
#P OB98/GEN NMR

erre ene a

0 1
  C      136.061    -391.762     138.120
  O      134.937    -390.927     138.421
  P      134.259    -390.071     137.251
  C      135.534    -387.847     137.083
  O      135.364    -389.150     136.548
  C      135.390    -386.772     135.986
  O      134.033    -386.806     135.451
  C      135.674    -385.346     136.497
  O      136.605    -384.621     135.678
  C      134.279    -384.730     136.598
  O      134.297    -383.311     136.534
  C      133.497    -385.460     135.497
  N      132.052    -385.460     135.746
  C      131.243    -385.110     134.676
  O      131.672    -384.742     133.587
  N      129.893    -385.130     134.930
  C      129.295    -385.385     136.124
  O      128.087    -385.352     136.299
  C      130.205    -385.684     137.243
  C      131.528    -385.711     137.008
  O      132.992    -389.374     137.620
  O      133.968    -391.189     136.131
  H      134.833    -383.038     135.742
  H      133.102    -390.983     135.704
  H      129.287    -384.903     134.140
  H      129.778    -385.866     138.199
  H      132.220    -385.910     137.802
  H      133.668    -384.995     134.525
  H      133.852    -385.004     137.566
  H      136.131    -385.353     137.493
  H      136.085    -387.035     135.186
  H      136.532    -387.755     137.532
  H      134.806    -387.673     137.895
  P      138.083    -384.232     136.155
  C      137.483    -382.144     137.562
  O      137.990    -383.466     137.554
  O      138.927    -383.561     135.124
  O      138.722    -385.649     136.546
  H      139.661    -385.690     136.250
  H      137.824    -381.643     138.476
  H      136.380    -382.174     137.553
  H      137.836    -381.563     136.691
  H      136.386    -392.258     139.011
  H      136.859    -391.161     137.735
  H      135.779    -392.490     137.389

 3  4  5  6  7  8  9  10  11  12  13  23  28  29  30  31  32 0
 6-311+G(2d,p)
 ****
 33  34 0
 6-311+G(2d,p)
 ****
 1  2  14  15  16  17  18  19  20  21  22  24  25  26  27 0
 3-21G
 ****
 35  36  37  38  39  40  41  42  43  44  45 0
 3-21G
 ****


