%nproc=1
%NoSave
%Mem=1900MB
#P OB98/GEN NMR

erre ene a

0 1
  C     1280.555     498.412    -458.021
  O     1279.974     498.723    -456.768
  P     1278.676     497.960    -456.233
  C     1276.151     498.507    -456.182
  O     1277.434     498.815    -456.747
  C     1275.101     499.553    -456.556
  O     1275.492     500.831    -455.928
  C     1274.926     499.818    -458.058
  O     1273.534     500.132    -458.217
  C     1275.797     501.022    -458.271
  O     1275.444     501.723    -459.492
  C     1275.557     501.821    -456.999
  N     1276.601     502.811    -456.756
  C     1276.576     503.957    -457.558
  O     1275.741     504.072    -458.451
  N     1277.535     504.936    -457.352
  C     1278.469     504.726    -456.488
  N     1279.361     505.736    -456.294
  C     1278.599     503.496    -455.706
  C     1277.636     502.575    -455.869
  O     1278.683     497.649    -454.777
  O     1278.598     496.658    -457.159
  H     1275.807     502.623    -459.451
  H     1279.254     495.972    -456.859
  H     1279.435     503.352    -455.015
  H     1277.632     501.631    -455.344
  H     1274.577     502.338    -457.012
  H     1276.842     500.720    -458.369
  H     1275.193     498.946    -458.663
  H     1274.145     499.262    -456.090
  H     1279.218     506.586    -456.847
  H     1276.254     498.446    -455.101
  H     1280.103     505.720    -455.592
  H     1275.840     497.500    -456.537
  P     1272.642     499.351    -459.318
  C     1271.741     499.904    -461.635
  O     1272.708     500.228    -460.667
  O     1271.259     498.999    -458.867
  O     1273.517     498.033    -459.688
  H     1272.931     497.401    -460.153
  H     1271.715     500.738    -462.396
  H     1270.759     499.788    -461.221
  H     1272.008     498.969    -462.174
  H     1281.409     499.036    -458.183
  H     1279.838     498.579    -458.798
  H     1280.857     497.386    -458.029

 3  4  5  6  7  8  9  10  11  12  13  23  27  28  29  30  32 0
 6-311+G(2d,p)
 ****
 34  35 0
 6-311+G(2d,p)
 ****
 1  2  14  15  16  17  18  19  20  21  22  24  25  26 0
 3-21G
 ****
 31  33  36  37  38  39  40  41  42  43  44  45  46 0
 3-21G
 ****


