%nproc=1
%NoSave
%Mem=1900MB
#P OB98/GEN NMR

erre ene a

0 1
  C      151.459    -301.595    -520.950
  O      151.000    -302.260    -522.134
  P      152.097    -302.525    -523.291
  C      151.918    -300.441    -524.823
  O      151.593    -301.812    -524.639
  C      151.515    -299.939    -526.225
  O      152.091    -300.781    -527.256
  C      149.992    -299.896    -526.444
  O      149.725    -298.788    -527.298
  C      149.736    -301.189    -527.208
  O      148.504    -301.125    -527.916
  C      151.009    -301.260    -528.089
  N      151.261    -302.599    -528.604
  C      150.612    -302.962    -529.787
  O      149.791    -302.191    -530.318
  N      150.857    -304.199    -530.339
  C      151.648    -305.030    -529.726
  N      151.855    -306.233    -530.306
  C      152.318    -304.704    -528.443
  C      152.092    -303.500    -527.959
  O      151.937    -304.090    -523.601
  O      153.494    -302.189    -522.868
  H      148.421    -301.929    -528.485
  H      152.806    -304.523    -523.587
  H      152.957    -305.439    -527.946
  H      152.532    -303.174    -527.020
  H      150.914    -300.578    -528.947
  H      149.698    -302.046    -526.521
  H      149.426    -299.812    -525.520
  H      151.926    -298.936    -526.343
  H      151.389    -306.422    -531.186
  H      152.991    -300.300    -524.687
  H      152.442    -306.959    -529.918
  H      151.429    -299.856    -524.042
  P      148.543    -297.793    -526.892
  C      146.795    -298.031    -528.771
  O      147.923    -297.288    -528.285
  O      149.380    -296.473    -526.456
  O      147.577    -298.212    -525.832
  H      148.765    -295.805    -526.105
  H      146.403    -297.517    -529.648
  H      146.020    -298.075    -528.008
  H      147.115    -299.041    -529.073
  H      150.644    -301.480    -520.267
  H      151.846    -300.632    -521.209
  H      152.230    -302.177    -520.490

 3  4  5  6  7  8  9  10  11  12  13  21  23  27  28  29  30  32 0
 6-311+G(2d,p)
 ****
 34  35 0
 6-311+G(2d,p)
 ****
 1  2  14  15  16  17  18  19  20  22  24  25  26 0
 3-21G
 ****
 31  33  36  37  38  39  40  41  42  43  44  45  46 0
 3-21G
 ****


