%nproc=1
%NoSave
%Mem=1900MB
#P OB98/GEN NMR

erre ene a

0 1
  C      108.869    -189.617     -69.720
  O      107.603    -189.933     -70.262
  H      108.863    -188.569     -69.408
  H      109.647    -189.751     -70.474
  H      109.084    -190.240     -68.847
  P      107.290    -191.454     -70.658
  C      105.038    -192.599     -71.180
  O      105.746    -191.715     -70.320
  C      103.536    -192.364     -71.042
  O      103.088    -192.760     -69.726
  C      103.124    -190.906     -71.196
  O      103.133    -190.512     -72.554
  C      101.750    -190.926     -70.547
  O      100.758    -191.421     -71.459
  C      101.969    -191.913     -69.380
  N      102.193    -191.239     -68.101
  C      101.065    -190.988     -67.327
  O       99.923    -191.272     -67.684
  N      101.291    -190.364     -66.129
  C      102.489    -189.878     -65.693
  O      102.623    -189.245     -64.650
  C      103.643    -190.150     -66.563
  C      103.446    -190.809     -67.707
  O      108.236    -192.470     -70.117
  O      107.306    -191.436     -72.261
  H       99.898    -191.335     -71.003
  H      108.132    -191.843     -72.581
  H      100.485    -190.160     -65.560
  H      104.612    -189.793     -66.245
  H      104.281    -191.014     -68.365
  H      101.099    -192.571     -69.270
  H      101.428    -189.934     -70.231
  H      103.785    -190.263     -70.603
  H      103.020    -192.995     -71.778
  H      105.273    -193.630     -70.896
  H      105.365    -192.430     -72.211
  P      102.524    -189.095     -72.979
  C      102.414    -187.672     -75.116
  O      103.059    -188.753     -74.451
  O      102.690    -188.001     -71.976
  O      100.973    -189.407     -73.224
  H      100.435    -188.871     -72.610
  H      102.851    -187.537     -76.083
  H      102.534    -186.777     -74.542
  H      101.372    -187.890     -75.223

 6  7  8  9  10  11  12  13  14  15  16  26  31  32  33  34  35 0
 6-311+G(2d,p)
 ****
 36  37 0
 6-311+G(2d,p)
 ****
 1  2  3  4  5  17  18  19  20  21  22  23  24  25 0
 3-21G
 ****
 27  28  29  30  38  39  40  41  42  43  44  45 0
 3-21G
 ****


