%nproc=1
%NoSave
%Mem=1900MB
#P OB98/GEN NMR

erre ene a

0 1
  C      -24.426    -200.825     132.588
  O      -23.693    -199.750     133.146
  H      -25.247    -201.075     133.264
  H      -23.783    -201.702     132.476
  H      -24.840    -200.535     131.619
  P      -22.447    -199.213     132.286
  C      -22.226    -198.297     129.873
  O      -23.061    -198.941     130.829
  C      -22.501    -198.841     128.472
  O      -22.054    -200.203     128.364
  C      -23.973    -198.855     128.080
  O      -24.392    -197.570     127.644
  C      -23.952    -199.858     126.937
  O      -23.484    -199.216     125.734
  C      -22.916    -200.891     127.414
  N      -22.782    -206.020     127.633
  C      -22.220    -205.140     126.772
  N      -22.333    -203.797     126.750
  C      -23.124    -203.369     127.747
  C      -23.762    -204.146     128.705
  C      -23.560    -205.534     128.629
  N      -24.125    -206.423     129.518
  N      -24.490    -203.355     129.571
  C      -24.251    -202.120     129.177
  N      -23.459    -202.079     128.055
  O      -21.214    -200.049     132.341
  O      -22.289    -197.730     132.872
  H      -23.954    -198.364     125.653
  H      -23.162    -197.335     133.042
  H      -21.597    -205.579     125.997
  H      -24.611    -201.228     129.677
  H      -22.283    -201.242     126.593
  H      -24.943    -200.259     126.719
  H      -24.600    -199.246     128.889
  H      -21.911    -198.247     127.760
  H      -21.173    -198.439     130.127
  H      -24.071    -207.405     129.291
  H      -24.804    -206.071     130.180
  H      -22.451    -197.225     129.912
  P      -25.918    -197.104     127.828
  C      -27.451    -196.727     129.857
  O      -26.310    -197.413     129.354
  O      -26.870    -197.650     126.820
  O      -25.858    -195.508     127.784
  H      -26.630    -195.151     127.306
  H      -27.616    -197.009     130.876
  H      -28.309    -196.985     129.272
  H      -27.286    -195.671     129.801

 6  7  8  9  10  11  12  13  14  15  25  28  32  33  34  35 0
 6-311+G(2d,p)
 ****
 36  39  40 0
 6-311+G(2d,p)
 ****
 1  2  3  4  5  16  17  18  19  20  21  22  23  24 0
 3-21G
 ****
 26  27  29  30  31  37  38  41  42  43  44  45  46  47 0
 3-21G
 ****
 48 0
 3-21G
 ****


