%nproc=1
%NoSave
%Mem=1900MB
#P OB98/GEN NMR

erre ene a

0 1
  C      154.239     100.965      53.731
  O      153.170     100.518      54.540
  H      154.249     102.057      53.735
  H      154.093     100.618      52.705
  H      155.197     100.602      54.116
  P      153.166      98.964      54.943
  C      150.988      98.483      53.617
  O      152.368      98.195      53.781
  C      150.264      97.279      53.021
  O      148.838      97.500      53.019
  C      150.651      96.963      51.580
  O      151.841      96.188      51.516
  C      149.447      96.151      51.136
  O      149.540      94.813      51.670
  C      148.290      96.902      51.809
  N      146.014      97.978      47.407
  C      146.549      96.787      47.860
  N      146.473      95.736      47.017
  N      147.111      96.640      49.031
  C      147.138      97.782      49.759
  C      146.648      99.021      49.416
  C      146.015      99.166      48.127
  O      145.516     100.197      47.682
  N      146.858      99.939      50.412
  C      147.494      99.261      51.346
  N      147.691      97.947      50.997
  O      152.158      98.925      56.188
  O      154.497      98.398      55.304
  H      150.431      94.482      51.458
  H      152.678      98.866      57.012
  H      145.602      98.040      46.493
  H      147.825      99.668      52.290
  H      147.479      96.231      52.113
  H      149.380      96.054      50.051
  H      146.073      95.786      46.093
  H      150.726      97.873      50.971
  H      146.855      94.852      47.330
  H      150.459      96.416      53.671
  H      150.880      99.342      52.947
  H      150.558      98.731      54.592
  P      153.027      96.697      50.564
  C      152.282      95.111      48.654
  O      152.554      96.448      49.050
  O      154.158      95.588      50.791
  O      153.540      98.064      50.862
  H      154.916      95.977      51.269
  H      151.979      95.098      47.628
  H      151.498      94.711      49.262
  H      153.164      94.517      48.774

 6  7  8  9  10  11  12  13  14  15  26  29  33  34 0
 6-311+G(2d,p)
 ****
 36  38  39  40  41 0
 6-311+G(2d,p)
 ****
 1  2  3  4  5  16  17  18  19  20  21  22  23  24  25 0
 3-21G
 ****
 27  28  30  31  32  35  37  42  43  44  45  46  47 0
 3-21G
 ****
 48  49 0
 3-21G
 ****


