%nproc=1
%NoSave
%Mem=1900MB
#P OB98/GEN NMR

erre ene a

0 1
  C      238.999    -118.923    -247.803
  O      238.010    -119.706    -248.440
  H      238.533    -118.360    -246.988
  H      239.429    -118.213    -248.514
  H      239.788    -119.551    -247.382
  P      238.467    -120.827    -249.489
  C      238.459    -119.311    -251.579
  O      239.247    -120.063    -250.665
  C      239.135    -119.248    -252.950
  O      238.196    -118.654    -253.902
  C      240.417    -118.388    -252.980
  O      241.294    -118.968    -253.956
  C      239.868    -117.058    -253.458
  O      240.888    -116.189    -253.876
  C      238.885    -117.550    -254.525
  N      237.949    -116.526    -254.973
  C      237.801    -116.356    -256.345
  O      238.388    -117.028    -257.188
  N      236.942    -115.359    -256.731
  C      236.245    -114.536    -255.896
  O      235.473    -113.673    -256.295
  C      236.467    -114.745    -254.456
  C      237.296    -115.716    -254.067
  O      237.399    -121.762    -249.945
  O      239.643    -121.602    -248.726
  H      239.288    -122.414    -248.319
  H      240.513    -115.335    -254.172
  H      236.820    -115.221    -257.723
  H      235.946    -114.095    -253.770
  H      237.487    -115.898    -253.014
  H      239.420    -117.952    -255.390
  H      239.338    -116.555    -252.647
  H      240.924    -118.347    -252.012
  H      239.335    -120.268    -253.297
  H      238.341    -118.300    -251.176
  H      237.473    -119.777    -251.669
  P      242.773    -119.494    -253.610
  C      244.110    -117.302    -253.858
  O      243.627    -118.298    -252.966
  O      243.456    -120.154    -254.765
  O      242.587    -120.525    -252.402
  H      243.228    -121.254    -252.499
  H      244.660    -116.567    -253.308
  H      243.284    -116.834    -254.352
  H      244.750    -117.755    -254.586

 6  7  8  9  10  11  12  13  14  15  16  27  31  32  33  34  35 0
 6-311+G(2d,p)
 ****
 36  37 0
 6-311+G(2d,p)
 ****
 1  2  3  4  5  17  18  19  20  21  22  23  24  25 0
 3-21G
 ****
 26  28  29  30  38  39  40  41  42  43  44  45 0
 3-21G
 ****


