%nproc=1
%NoSave
%Mem=1900MB
#P OB98/GEN NMR

erre ene a

0 1
  C       91.498     251.238     329.188
  O       92.069     252.542     329.041
  P       91.388     253.743     329.863
  C       91.325     254.240     332.434
  O       92.015     253.662     331.336
  C       92.294     254.503     333.586
  O       92.927     253.270     334.010
  C       93.435     255.441     333.234
  O       92.998     256.789     333.164
  C       94.413     255.145     334.365
  O       94.030     255.854     335.557
  C       94.212     253.629     334.571
  N       95.287     252.827     333.996
  C       96.252     252.381     334.895
  O       96.236     252.650     336.095
  N       97.258     251.620     334.359
  C       97.402     251.299     333.040
  O       98.320     250.606     332.621
  C       96.379     251.840     332.136
  C       95.382     252.570     332.644
  O       89.898     253.194     330.030
  O       91.509     255.060     329.175
  H       89.859     252.230     330.145
  H       94.788     255.786     336.173
  H       97.963     251.277     334.994
  H       96.477     251.628     331.076
  H       94.616     252.981     331.992
  H       94.150     253.398     335.642
  H       95.438     255.442     334.123
  H       93.882     255.147     332.273
  H       91.718     254.904     334.430
  H       90.535     253.564     332.776
  H       90.845     255.166     332.102
  P       92.916     257.449     331.699
  C       91.006     257.711     329.934
  O       91.379     257.368     331.250
  O       93.639     256.330     330.813
  O       93.542     258.803     331.617
  H       93.358     255.428     331.037
  H       90.026     257.271     329.722
  H       91.723     257.339     329.200
  H       90.926     258.800     329.849
  H       92.045     250.540     328.590
  H       90.477     251.258     328.869
  H       91.545     250.942     330.215

 3  4  5  6  7  8  9  10  11  12  13  24  28  29  30  31  32 0
 6-311+G(2d,p)
 ****
 33  34 0
 6-311+G(2d,p)
 ****
 1  2  14  15  16  17  18  19  20  21  22  23  25  26  27 0
 3-21G
 ****
 35  36  37  38  39  40  41  42  43  44  45 0
 3-21G
 ****


