%nproc=1
%NoSave
%Mem=1900MB
#P OB98/GEN NMR

erre ene a

0 1
  C     -207.764    -771.935    -233.215
  O     -207.273    -770.611    -233.344
  H     -208.683    -772.018    -233.800
  H     -207.996    -772.138    -232.166
  H     -207.041    -772.661    -233.584
  P     -205.780    -770.293    -232.852
  C     -204.690    -770.787    -235.144
  O     -204.785    -771.156    -233.775
  C     -203.349    -770.099    -235.430
  O     -202.280    -771.056    -235.244
  C     -203.269    -769.610    -236.882
  O     -202.411    -768.476    -237.017
  C     -202.640    -770.795    -237.601
  O     -201.996    -770.434    -238.826
  C     -201.688    -771.329    -236.537
  N     -199.718    -775.061    -239.394
  C     -199.964    -773.744    -239.731
  N     -199.649    -773.376    -241.001
  N     -200.503    -772.879    -238.912
  C     -200.843    -773.407    -237.706
  C     -200.661    -774.700    -237.269
  C     -200.035    -775.639    -238.173
  O     -199.808    -776.824    -237.933
  N     -201.134    -774.861    -235.986
  C     -201.595    -773.670    -235.660
  N     -201.422    -772.749    -236.659
  O     -205.679    -771.049    -231.438
  O     -205.437    -768.839    -232.729
  H     -201.813    -771.264    -239.309
  H     -204.971    -770.655    -230.899
  H     -199.275    -775.677    -240.055
  H     -202.062    -773.428    -234.706
  H     -200.724    -770.806    -236.578
  H     -203.438    -771.505    -237.853
  H     -199.418    -774.055    -241.708
  H     -204.247    -769.371    -237.304
  H     -200.101    -772.523    -241.347
  H     -203.185    -769.289    -234.704
  H     -205.524    -770.108    -235.350
  H     -204.818    -771.665    -235.782
  P     -202.979    -767.169    -237.756
  C     -204.293    -766.168    -235.686
  O     -204.292    -766.658    -237.011
  O     -203.524    -767.722    -239.149
  O     -201.964    -766.076    -237.948
  H     -203.003    -767.351    -239.892
  H     -205.288    -765.888    -235.410
  H     -203.651    -765.315    -235.621
  H     -203.941    -766.931    -235.023

 6  7  8  9  10  11  12  13  14  15  26  29  33  34 0
 6-311+G(2d,p)
 ****
 36  38  39  40  41 0
 6-311+G(2d,p)
 ****
 1  2  3  4  5  16  17  18  19  20  21  22  23  24  25 0
 3-21G
 ****
 27  28  30  31  32  35  37  42  43  44  45  46  47 0
 3-21G
 ****
 48  49 0
 3-21G
 ****


