%nproc=1
%NoSave
%Mem=1900MB
#P OB98/GEN NMR

erre ene a

0 1
  C     -136.775     -72.898     536.005
  O     -136.937     -73.094     534.607
  P     -135.993     -74.191     533.895
  C     -137.098     -73.913     531.563
  O     -135.913     -73.785     532.348
  C     -136.923     -73.188     530.225
  O     -136.878     -71.753     530.421
  C     -135.623     -73.529     529.488
  O     -135.731     -74.760     528.767
  C     -135.513     -72.353     528.528
  O     -136.374     -72.568     527.397
  C     -136.036     -71.189     529.386
  N     -134.099     -66.563     530.111
  C     -135.333     -66.934     529.610
  N     -136.143     -65.936     529.175
  N     -135.744     -68.178     529.521
  C     -134.827     -69.075     529.983
  C     -133.576     -68.818     530.510
  C     -133.139     -67.443     530.572
  O     -132.045     -67.046     530.969
  N     -132.941     -69.975     530.880
  C     -133.806     -70.925     530.568
  N     -134.939     -70.422     529.987
  O     -136.895     -75.515     533.894
  O     -134.672     -74.410     534.570
  H     -136.294     -71.773     526.825
  H     -136.325     -76.303     533.734
  H     -133.841     -65.590     530.137
  H     -133.645     -71.991     530.744
  H     -136.651     -70.501     528.805
  H     -134.504     -72.229     528.148
  H     -135.870     -64.965     529.148
  H     -134.765     -73.531     530.163
  H     -137.029     -66.190     528.740
  H     -137.802     -73.419     529.592
  H     -137.946     -73.489     532.099
  H     -137.298     -74.980     531.388
  P     -134.362     -75.350     528.154
  C     -134.443     -77.687     529.283
  O     -134.590     -76.951     528.105
  O     -133.319     -75.147     529.342
  O     -133.919     -74.699     526.886
  H     -132.398     -75.082     528.999
  H     -134.883     -78.688     529.137
  H     -134.949     -77.207     530.134
  H     -133.384     -77.816     529.530
  H     -137.460     -72.148     536.342
  H     -135.773     -72.583     536.207
  H     -136.971     -73.816     536.519

 3  4  5  6  7  8  9  10  11  12  23  26  30  31 0
 6-311+G(2d,p)
 ****
 33  35  36  37  38 0
 6-311+G(2d,p)
 ****
 1  2  13  14  15  16  17  18  19  20  21  22  24  25 0
 3-21G
 ****
 27  28  29  32  34  39  40  41  42  43  44  45  46  47  48  49 0
 3-21G
 ****


