%nproc=1
%NoSave
%Mem=1900MB
#P OB98/GEN NMR

erre ene a

0 1
  C       15.542    -662.517    -171.086
  O       14.902    -662.621    -172.343
  H       15.703    -663.526    -170.693
  H       14.912    -661.969    -170.383
  H       16.513    -662.022    -171.184
  P       14.686    -661.289    -173.208
  C       16.451    -662.220    -174.840
  O       16.000    -661.095    -174.100
  C       15.986    -662.107    -176.291
  O       16.431    -660.861    -176.863
  C       16.540    -663.200    -177.203
  O       15.862    -664.426    -177.002
  C       16.327    -662.565    -178.566
  O       14.971    -662.735    -179.003
  C       16.638    -661.083    -178.276
  N       17.987    -660.695    -178.679
  C       18.114    -660.085    -179.925
  O       17.163    -659.899    -180.685
  N       19.384    -659.720    -180.286
  C       20.524    -660.005    -179.592
  O       21.648    -659.732    -180.003
  C       20.336    -660.668    -178.298
  C       19.095    -660.978    -177.907
  O       14.256    -660.080    -172.441
  O       13.581    -661.716    -174.287
  H       14.957    -662.526    -179.958
  H       12.721    -661.330    -174.044
  H       19.494    -659.289    -181.191
  H       21.218    -660.896    -177.710
  H       18.939    -661.475    -176.954
  H       15.925    -660.436    -178.805
  H       16.964    -663.011    -179.328
  H       17.616    -663.319    -177.030
  H       14.885    -662.112    -176.300
  H       16.032    -663.130    -174.390
  H       17.546    -662.267    -174.783
  P       16.661    -665.809    -177.116
  C       16.175    -666.398    -174.666
  O       17.181    -666.196    -175.649
  O       17.704    -665.860    -178.188
  O       15.519    -666.893    -177.385
  H       15.676    -667.328    -178.246
  H       16.634    -666.650    -173.733
  H       15.531    -667.195    -174.973
  H       15.603    -665.501    -174.552

 6  7  8  9  10  11  12  13  14  15  16  26  31  32  33  34  35 0
 6-311+G(2d,p)
 ****
 36  37 0
 6-311+G(2d,p)
 ****
 1  2  3  4  5  17  18  19  20  21  22  23  24  25 0
 3-21G
 ****
 27  28  29  30  38  39  40  41  42  43  44  45 0
 3-21G
 ****


