%nproc=1
%NoSave
%Mem=1900MB
#P OB98/GEN NMR

erre ene a

0 1
  C       10.415     498.173      34.914
  O       11.526     498.964      34.498
  P       12.962     498.263      34.383
  C       13.602     499.005      36.775
  O       13.484     497.918      35.857
  C       14.532     498.631      37.939
  O       15.908     498.664      37.474
  C       14.473     499.587      39.139
  O       13.520     499.326      40.165
  C       15.852     499.361      39.763
  O       15.828     498.193      40.602
  C       16.753     499.106      38.561
  N       19.541     503.065      40.220
  C       18.936     502.051      40.874
  N       18.212     501.039      40.358
  C       18.153     501.126      39.019
  C       18.730     502.095      38.217
  C       19.454     503.104      38.867
  N       20.063     504.148      38.205
  N       18.449     501.859      36.881
  C       17.709     500.770      36.895
  N       17.507     500.280      38.146
  O       13.954     498.947      33.495
  O       12.591     496.809      33.802
  H       15.352     498.447      41.415
  H       13.280     496.536      33.172
  H       19.041     502.056      41.955
  H       17.285     500.310      36.008
  H       17.484     498.307      38.747
  H       16.162     500.199      40.399
  H       14.382     500.625      38.807
  H       14.308     497.603      38.267
  H       12.614     499.264      37.158
  H       20.525     504.858      38.757
  H       19.959     504.224      37.203
  H       13.960     499.870      36.211
  P       12.365     500.378      40.520
  C       13.622     501.550      42.496
  O       13.110     501.636      41.179
  O       11.235     499.833      41.330
  O       11.946     500.927      39.080
  H       12.625     501.467      38.636
  H       14.276     502.409      42.680
  H       14.205     500.630      42.632
  H       12.799     501.574      43.209
  H        9.535     498.781      34.941
  H       10.605     497.777      35.890
  H       10.272     497.368      34.224

 3  4  5  6  7  8  9  10  11  12  22  25  29  30  31  32 0
 6-311+G(2d,p)
 ****
 33  36  37 0
 6-311+G(2d,p)
 ****
 1  2  13  14  15  16  17  18  19  20  21  23  24  26 0
 3-21G
 ****
 27  28  34  35  38  39  40  41  42  43  44  45  46  47  48 0
 3-21G
 ****


