%nproc=1
%NoSave
%Mem=1900MB
#P OB98/GEN NMR

erre ene a

0 1
  C     -898.920    -107.712     157.097
  O     -898.510    -106.734     158.033
  H     -900.000    -107.803     157.143
  H     -898.480    -108.682     157.349
  H     -898.640    -107.423     156.086
  P     -896.960    -106.323     158.105
  C     -897.850    -103.919     158.050
  O     -896.910    -104.805     158.625
  C     -897.950    -102.628     158.878
  O     -898.630    -102.920     160.123
  C     -896.590    -102.015     159.226
  O     -896.700    -100.589     159.174
  C     -896.360    -102.452     160.669
  O     -895.510    -101.555     161.374
  C     -897.800    -102.494     161.202
  N     -896.420    -103.254     166.002
  C     -896.190    -102.180     165.185
  N     -895.450    -101.158     165.681
  N     -896.630    -102.107     163.935
  C     -897.360    -103.181     163.566
  C     -897.660    -104.312     164.308
  C     -897.150    -104.380     165.658
  O     -897.320    -105.327     166.438
  N     -898.400    -105.202     163.560
  C     -898.550    -104.624     162.390
  N     -897.920    -103.399     162.338
  O     -896.170    -106.583     156.873
  O     -896.400    -107.152     159.358
  H     -895.540    -101.805     162.320
  H     -895.920    -107.957     159.052
  H     -896.050    -103.256     166.940
  H     -899.080    -105.036     161.542
  H     -898.150    -101.511     161.555
  H     -895.910    -103.459     160.677
  H     -895.100    -101.138     166.626
  H     -895.780    -102.349     158.558
  H     -895.290    -100.352     165.091
  H     -898.580    -101.904     158.333
  H     -898.830    -104.415     158.027
  H     -897.540    -103.676     157.018
  P     -896.190     -99.835     157.858
  C     -898.030     -98.017     157.816
  O     -896.640     -98.300     157.971
  O     -896.500    -100.501     156.555
  O     -894.590     -99.744     158.106
  H     -894.150     -99.743     157.246
  H     -898.193     -96.964     157.913
  H     -898.586     -98.535     158.570
  H     -898.354     -98.340     156.849

 6  7  8  9  10  11  12  13  14  15  26  29  33  34 0
 6-311+G(2d,p)
 ****
 36  38  39  40  41 0
 6-311+G(2d,p)
 ****
 1  2  3  4  5  16  17  18  19  20  21  22  23  24  25 0
 3-21G
 ****
 27  28  30  31  32  35  37  42  43  44  45  46  47 0
 3-21G
 ****
 48  49 0
 3-21G
 ****


