%nproc=1
%NoSave
%Mem=1900MB
#P OB98/GEN NMR

erre ene a

0 1
  C      545.814     297.986    -492.566
  O      545.777     298.231    -491.173
  P      547.074     297.952    -490.243
  C      545.576     296.737    -488.501
  O      546.690     296.640    -489.395
  C      545.471     295.464    -487.686
  O      545.111     294.355    -488.547
  C      546.748     295.039    -486.960
  O      546.990     295.842    -485.821
  C      546.454     293.570    -486.698
  O      545.609     293.421    -485.553
  C      545.689     293.149    -487.968
  N      546.543     292.460    -488.942
  C      546.924     291.150    -488.612
  O      546.574     290.624    -487.562
  N      547.708     290.449    -489.516
  C      548.071     291.021    -490.619
  N      548.786     290.247    -491.497
  C      547.743     292.410    -490.982
  C      546.972     293.066    -490.107
  O      547.513     299.112    -489.436
  O      548.169     297.398    -491.261
  H      546.121     293.738    -484.781
  H      548.728     298.108    -491.679
  H      548.083     292.825    -491.915
  H      546.665     294.071    -490.307
  H      544.857     292.502    -487.706
  H      547.370     292.978    -486.529
  H      547.603     295.139    -487.643
  H      544.659     295.583    -486.946
  H      548.850     289.256    -491.284
  H      544.659     296.868    -489.097
  H      548.868     290.500    -492.475
  H      545.713     297.627    -487.862
  P      548.323     295.566    -484.972
  C      547.335     295.215    -482.589
  O      547.869     294.620    -483.751
  O      548.624     296.976    -484.304
  O      549.476     295.071    -485.782
  H      549.321     297.439    -484.779
  H      546.883     294.451    -481.969
  H      546.571     295.974    -482.859
  H      548.160     295.692    -482.022
  H      544.866     298.232    -492.997
  H      546.028     296.952    -492.741
  H      546.576     298.589    -493.014

 3  4  5  6  7  8  9  10  11  12  13  23  27  28  29  30  32 0
 6-311+G(2d,p)
 ****
 34  35 0
 6-311+G(2d,p)
 ****
 1  2  14  15  16  17  18  19  20  21  22  24  25  26 0
 3-21G
 ****
 31  33  36  37  38  39  40  41  42  43  44  45  46 0
 3-21G
 ****


