%nproc=1
%NoSave
%Mem=1900MB
#P OB98/GEN NMR

erre ene a

0 1
  C      338.161     -39.964     239.371
  O      337.796     -38.903     240.229
  H      338.093     -40.904     239.926
  H      339.189     -39.835     239.021
  H      337.480     -40.006     238.517
  P      337.941     -37.418     239.633
  C      340.028     -37.300     241.194
  O      339.482     -37.052     239.906
  C      340.998     -36.187     241.573
  O      341.955     -35.961     240.511
  C      340.342     -34.831     241.817
  O      339.707     -34.731     243.078
  C      341.560     -33.931     241.725
  O      342.348     -34.060     242.924
  C      342.290     -34.547     240.510
  N      341.906     -33.928     239.239
  C      341.701     -32.544     239.252
  O      341.838     -31.897     240.287
  N      341.309     -31.924     238.091
  C      341.155     -32.617     237.005
  N      340.764     -31.949     235.886
  C      341.372     -34.073     236.943
  C      341.742     -34.657     238.081
  O      337.170     -36.512     240.703
  O      337.491     -37.232     238.224
  H      341.856     -33.605     243.631
  H      337.324     -35.555     240.508
  H      341.219     -34.612     236.019
  H      341.921     -35.726     238.113
  H      343.378     -34.468     240.622
  H      341.314     -32.874     241.620
  H      339.649     -34.568     241.009
  H      341.561     -36.521     242.454
  H      340.564     -30.961     235.976
  H      340.550     -38.263     241.165
  H      340.473     -32.418     235.039
  H      339.227     -37.352     241.938
  P      338.285     -33.985     243.131
  C      339.386     -31.630     243.272
  O      338.516     -32.505     242.565
  O      338.054     -33.752     244.695
  O      337.156     -34.741     242.504
  H      337.106     -33.816     244.921
  H      339.431     -30.688     242.767
  H      340.365     -32.059     243.315
  H      339.016     -31.485     244.265

 6  7  8  9  10  11  12  13  14  15  16  26  30  31  32  33  35 0
 6-311+G(2d,p)
 ****
 37  38 0
 6-311+G(2d,p)
 ****
 1  2  3  4  5  17  18  19  20  21  22  23  24  25 0
 3-21G
 ****
 27  28  29  34  36  39  40  41  42  43  44  45  46 0
 3-21G
 ****


