%nproc=1
%NoSave
%Mem=1900MB
#P OB98/GEN NMR

erre ene a

0 1
  C     -295.967     120.375     377.959
  O     -295.729     119.003     378.285
  P     -294.220     118.593     378.626
  C     -294.728     117.521     380.941
  O     -294.253     117.330     379.612
  C     -295.124     116.181     381.560
  O     -296.352     115.673     381.002
  C     -294.094     115.085     381.330
  O     -292.966     115.263     382.160
  C     -294.920     113.842     381.634
  O     -295.026     113.652     383.058
  C     -296.300     114.234     381.067
  N     -299.743     111.925     378.060
  C     -299.806     112.341     379.350
  N     -298.846     112.944     380.074
  C     -297.726     113.117     379.347
  C     -297.521     112.742     378.027
  C     -298.596     112.118     377.376
  N     -298.525     111.670     376.071
  N     -296.243     113.080     377.620
  C     -295.684     113.626     378.682
  N     -296.543     113.681     379.743
  O     -293.711     119.791     379.556
  O     -293.356     118.430     377.418
  H     -295.612     114.357     383.400
  H     -293.073     120.341     379.066
  H     -300.741     112.173     379.851
  H     -294.666     113.987     378.729
  H     -297.120     113.897     381.708
  H     -294.503     112.926     381.214
  H     -293.777     115.072     380.275
  H     -295.262     116.338     382.637
  H     -295.594     118.197     380.938
  H     -299.320     111.158     375.707
  H     -297.650     111.729     375.579
  H     -293.951     118.019     381.525
  P     -291.668     114.364     381.877
  C     -290.377     116.518     381.367
  O     -290.433     115.346     382.161
  O     -291.682     114.267     380.284
  O     -291.640     113.054     382.600
  H     -291.851     115.138     379.872
  H     -289.515     117.115     381.690
  H     -291.283     117.106     381.489
  H     -290.248     116.252     380.312
  H     -297.007     120.517     377.753
  H     -295.393     120.641     377.096
  H     -295.679     120.993     378.784

 3  4  5  6  7  8  9  10  11  12  22  25  29  30  31  32 0
 6-311+G(2d,p)
 ****
 33  36  37 0
 6-311+G(2d,p)
 ****
 1  2  13  14  15  16  17  18  19  20  21  23  24  26 0
 3-21G
 ****
 27  28  34  35  38  39  40  41  42  43  44  45  46  47  48 0
 3-21G
 ****


