%nproc=1
%NoSave
%Mem=1900MB
#P OB98/GEN NMR

erre ene a

0 1
  C      -13.972     -97.317     104.278
  O      -13.059     -98.015     105.104
  H      -13.948     -96.257     104.545
  H      -14.984     -97.699     104.438
  H      -13.694     -97.423     103.226
  P      -12.772     -99.542     104.716
  C      -14.060    -100.694     106.688
  O      -13.989    -100.420     105.296
  C      -15.192    -101.678     106.971
  O      -15.222    -102.037     108.367
  C      -16.582    -101.120     106.714
  O      -16.872    -100.993     105.339
  C      -17.439    -102.162     107.421
  O      -17.697    -103.293     106.581
  C      -16.547    -102.562     108.620
  N      -17.096    -102.096     109.880
  C      -17.872    -103.031     110.578
  O      -18.030    -104.164     110.124
  N      -18.473    -102.643     111.747
  C      -18.339    -101.424     112.168
  N      -18.989    -101.095     113.317
  C      -17.532    -100.408     111.463
  C      -16.944    -100.808     110.334
  O      -11.555     -99.921     105.683
  O      -12.499     -99.778     103.269
  H      -18.381    -103.825     107.038
  H      -11.702     -99.675     106.610
  H      -17.440     -99.409     111.862
  H      -16.333    -100.126     109.752
  H      -16.444    -103.655     108.675
  H      -18.410    -101.755     107.712
  H      -16.708    -100.163     107.238
  H      -15.011    -102.586     106.381
  H      -19.576    -101.807     113.737
  H      -14.210     -99.770     107.256
  H      -19.021    -100.161     113.695
  H      -13.099    -101.119     106.992
  P      -18.256    -100.366     104.835
  C      -19.307    -102.656     104.300
  O      -19.389    -101.477     105.094
  O      -18.240     -99.819     103.448
  O      -18.594     -99.279     105.962
  H      -18.688     -99.637     106.861
  H      -20.107    -103.317     104.559
  H      -18.371    -103.142     104.479
  H      -19.381    -102.395     103.265

 6  7  8  9  10  11  12  13  14  15  16  26  30  31  32  33  35 0
 6-311+G(2d,p)
 ****
 37  38 0
 6-311+G(2d,p)
 ****
 1  2  3  4  5  17  18  19  20  21  22  23  24  25 0
 3-21G
 ****
 27  28  29  34  36  39  40  41  42  43  44  45  46 0
 3-21G
 ****


