%nproc=1
%NoSave
%Mem=1900MB
#P OB98/GEN NMR

erre ene a

0 1
  C      466.276     146.702    -899.147
  O      466.579     148.097    -899.087
  P      465.956     148.944    -897.877
  C      468.225     149.381    -896.627
  O      466.945     148.789    -896.617
  C      468.809     149.449    -895.197
  O      467.932     150.274    -894.397
  C      468.907     148.123    -894.457
  O      469.823     148.259    -893.377
  C      467.503     147.965    -893.917
  O      467.449     147.002    -892.857
  C      467.125     149.416    -893.537
  N      465.693     149.717    -893.697
  C      464.759     148.925    -893.057
  O      465.043     147.962    -892.347
  N      463.447     149.234    -893.267
  C      462.975     150.277    -894.027
  O      461.783     150.446    -894.267
  C      464.004     151.171    -894.567
  C      465.296     150.871    -894.397
  O      464.649     148.104    -897.457
  O      465.631     150.350    -898.227
  H      467.961     147.397    -892.107
  H      463.848     148.565    -897.777
  H      462.747     148.614    -892.867
  H      463.673     152.051    -895.107
  H      466.065     151.519    -894.807
  H      467.381     149.626    -892.477
  H      466.836     147.602    -894.707
  H      469.199     147.278    -895.097
  H      469.775     149.954    -895.237
  H      468.170     150.375    -897.067
  H      468.901     148.792    -897.257
  P      471.394     148.252    -893.717
  C      472.019     150.083    -892.007
  O      471.946     149.712    -893.377
  O      471.772     147.682    -895.037
  O      472.010     147.372    -892.507
  H      472.881     147.042    -892.757
  H      472.841     150.800    -891.877
  H      472.211     149.202    -891.377
  H      471.079     150.555    -891.707
  H      466.756     146.269    -900.000
  H      465.217     146.570    -899.228
  H      466.628     146.222    -898.258

 3  4  5  6  7  8  9  10  11  12  13  23  28  29  30  31  32 0
 6-311+G(2d,p)
 ****
 33  34 0
 6-311+G(2d,p)
 ****
 1  2  14  15  16  17  18  19  20  21  22  24  25  26  27 0
 3-21G
 ****
 35  36  37  38  39  40  41  42  43  44  45 0
 3-21G
 ****


