%nproc=1
%NoSave
%Mem=1900MB
#P OB98/GEN NMR

erre ene a

0 1
  C      334.993     164.697    -170.679
  O      336.294     164.336    -171.096
  H      334.711     165.628    -171.179
  H      334.966     164.859    -169.598
  H      334.276     163.920    -170.959
  P      336.987     163.062    -170.416
  C      339.355     163.685    -169.582
  O      338.564     163.211    -170.662
  C      340.501     164.569    -170.090
  O      339.941     165.793    -170.641
  C      341.500     164.976    -168.995
  O      342.779     165.142    -169.625
  C      340.939     166.316    -168.562
  O      341.866     167.040    -167.794
  C      340.530     166.896    -169.919
  N      339.615     168.020    -169.794
  C      340.193     169.262    -169.523
  O      341.414     169.363    -169.391
  N      339.377     170.353    -169.377
  C      338.090     170.204    -169.430
  N      337.335     171.323    -169.265
  C      337.435     168.899    -169.655
  C      338.250     167.860    -169.832
  O      336.417     161.735    -170.792
  O      336.839     163.335    -168.844
  H      342.740     167.078    -168.243
  H      336.139     162.764    -168.476
  H      336.359     168.825    -169.670
  H      337.862     166.860    -170.003
  H      341.412     167.226    -170.484
  H      340.056     166.175    -167.932
  H      341.570     164.245    -168.186
  H      341.004     164.050    -170.915
  H      337.825     172.194    -169.101
  H      339.758     162.811    -169.061
  H      336.326     171.327    -169.264
  H      338.734     164.255    -168.883
  P      344.052     164.239    -169.261
  C      345.927     165.894    -169.897
  O      345.284     164.659    -170.198
  O      343.772     162.771    -169.246
  O      344.508     164.733    -167.807
  H      344.906     163.982    -167.326
  H      346.726     166.058    -170.589
  H      346.319     165.859    -168.902
  H      345.219     166.693    -169.974

 6  7  8  9  10  11  12  13  14  15  16  26  30  31  32  33  35 0
 6-311+G(2d,p)
 ****
 37  38 0
 6-311+G(2d,p)
 ****
 1  2  3  4  5  17  18  19  20  21  22  23  24  25 0
 3-21G
 ****
 27  28  29  34  36  39  40  41  42  43  44  45  46 0
 3-21G
 ****


