%nproc=1
%NoSave
%Mem=1900MB
#P OB98/GEN NMR

erre ene a

0 1
  C     -265.186     765.261      30.817
  O     -264.369     764.113      31.082
  P     -263.397     763.990      32.357
  C     -261.463     763.043      30.920
  O     -262.309     762.853      32.048
  C     -260.967     761.702      30.377
  O     -260.137     761.037      31.357
  C     -262.056     760.689      30.062
  O     -262.772     761.012      28.886
  C     -261.242     759.396      29.964
  O     -260.665     759.236      28.663
  C     -260.126     759.636      31.006
  N     -260.264     758.798      32.188
  C     -259.917     757.454      32.042
  O     -259.596     757.005      30.944
  N     -259.956     756.644      33.154
  C     -260.407     757.109      34.276
  N     -260.405     756.263      35.348
  C     -260.912     758.486      34.434
  C     -260.812     759.268      33.364
  O     -264.119     763.798      33.652
  O     -262.547     765.346      32.367
  H     -262.259     765.544      33.281
  H     -261.387     758.942      28.067
  H     -261.317     758.823      35.379
  H     -261.143     760.300      33.394
  H     -259.144     759.458      30.552
  H     -261.851     758.509      30.162
  H     -262.743     760.624      30.912
  H     -260.360     761.902      29.482
  H     -260.044     755.333      35.200
  H     -260.595     763.640      31.237
  H     -260.713     756.533      36.267
  H     -262.005     763.604      30.152
  P     -264.334     760.643      28.858
  C     -264.185     760.033      26.336
  O     -264.840     760.781      27.346
  O     -265.027     761.877      29.608
  O     -264.674     759.343      29.519
  H     -265.753     761.550      30.173
  H     -264.890     759.840      25.528
  H     -263.818     759.076      26.719
  H     -263.344     760.607      25.948
  H     -265.740     765.104      29.915
  H     -264.563     766.124      30.708
  H     -265.864     765.411      31.631

 3  4  5  6  7  8  9  10  11  12  13  24  27  28  29  30  32 0
 6-311+G(2d,p)
 ****
 34  35 0
 6-311+G(2d,p)
 ****
 1  2  14  15  16  17  18  19  20  21  22  23  25  26 0
 3-21G
 ****
 31  33  36  37  38  39  40  41  42  43  44  45  46 0
 3-21G
 ****


