%nproc=1
%NoSave
%Mem=1900MB
#P OB98/GEN NMR

erre ene a

0 1
  C      -64.973    -424.459     -90.989
  O      -64.570    -423.287     -90.286
  P      -65.632    -422.096     -90.179
  C      -63.739    -420.871     -88.894
  O      -64.770    -420.772     -89.871
  C      -62.671    -419.807     -89.139
  O      -63.292    -418.522     -89.261
  C      -61.650    -419.668     -88.016
  O      -60.633    -420.657     -88.100
  C      -61.084    -418.286     -88.311
  O      -60.084    -418.373     -89.333
  C      -62.327    -417.522     -88.818
  N      -62.390    -412.933     -86.692
  C      -61.609    -413.414     -87.717
  N      -60.730    -412.547     -88.277
  N      -61.674    -414.644     -88.159
  C      -62.607    -415.390     -87.536
  C      -63.446    -415.031     -86.494
  C      -63.334    -413.679     -85.980
  O      -63.951    -413.206     -85.039
  N      -64.278    -416.047     -86.125
  C      -63.982    -417.024     -86.969
  N      -62.950    -416.678     -87.820
  O      -66.376    -422.388     -88.785
  O      -66.605    -421.996     -91.311
  H      -59.901    -417.462     -89.642
  H      -67.267    -421.991     -88.798
  H      -62.309    -411.968     -86.403
  H      -64.479    -417.990     -86.997
  H      -62.080    -416.913     -89.693
  H      -60.605    -417.829     -87.433
  H      -60.734    -411.556     -88.066
  H      -62.138    -419.666     -87.037
  H      -60.183    -412.877     -89.057
  H      -62.172    -420.037     -90.092
  H      -63.277    -421.864     -88.956
  H      -64.183    -420.755     -87.895
  P      -60.063    -421.207     -86.694
  C      -59.044    -423.287     -87.872
  O      -58.808    -422.134     -87.092
  O      -61.179    -422.233     -86.211
  O      -59.795    -420.138     -85.674
  H      -61.158    -422.324     -85.241
  H      -59.827    -423.116     -88.618
  H      -59.333    -424.118     -87.230
  H      -58.113    -423.552     -88.394
  H      -64.174    -425.170     -90.985
  H      -65.217    -424.203     -91.999
  H      -65.831    -424.884     -90.511

 3  4  5  6  7  8  9  10  11  12  23  26  30  31  33  0
 6-311+G(2d,p)
 ****
 35  36  37  38 0
 6-311+G(2d,p)
 ****
 1  2  13  14  15  16  17  18  19  20  21  22  24  25  27  28  29 0
 3-21G
 ****
 32  34  39  40  41  42  43  44  45  46  47  48  49 0
 3-21G
 ****


