%nproc=1
%NoSave
%Mem=1900MB
#P OB98/GEN NMR

erre ene a

0 1
  C     -148.363    -335.388     432.898
  O     -148.314    -335.095     431.499
  P     -146.860    -334.889     430.849
  C     -147.540    -335.626     428.460
  O     -147.035    -334.584     429.284
  C     -147.592    -335.211     426.983
  O     -148.682    -334.276     426.744
  C     -146.304    -334.542     426.489
  O     -146.130    -334.913     425.117
  C     -146.637    -333.064     426.558
  O     -145.777    -332.301     425.714
  C     -148.121    -333.086     426.141
  N     -148.846    -331.885     426.542
  C     -149.956    -331.524     425.780
  O     -150.250    -332.170     424.762
  N     -150.692    -330.425     426.142
  C     -150.314    -329.706     427.161
  N     -151.079    -328.621     427.469
  C     -149.108    -330.012     427.961
  C     -148.435    -331.102     427.602
  O     -146.225    -336.362     430.884
  O     -146.008    -333.909     431.597
  H     -146.002    -331.350     425.830
  H     -145.332    -336.332     431.278
  H     -148.825    -329.377     428.784
  H     -147.545    -331.413     428.131
  H     -148.210    -333.184     425.055
  H     -146.532    -332.697     427.590
  H     -145.417    -334.825     427.067
  H     -147.794    -336.109     426.381
  H     -151.899    -328.449     426.897
  H     -148.545    -335.902     428.788
  H     -150.874    -327.998     428.234
  H     -146.923    -336.523     428.594
  P     -145.237    -336.201     424.789
  C     -147.004    -337.188     423.199
  O     -145.694    -336.651     423.318
  O     -145.941    -337.323     425.703
  O     -143.765    -336.136     425.050
  H     -145.438    -338.159     425.638
  H     -147.224    -337.333     422.139
  H     -147.737    -336.489     423.629
  H     -147.059    -338.153     423.707
  H     -149.382    -335.501     433.203
  H     -147.913    -334.587     433.446
  H     -147.830    -336.295     433.091

 3  4  5  6  7  8  9  10  11  12  13  21  23  27  28  29  30  32 0
 6-311+G(2d,p)
 ****
 34  35 0
 6-311+G(2d,p)
 ****
 1  2  14  15  16  17  18  19  20  22  24  25  26 0
 3-21G
 ****
 31  33  36  37  38  39  40  41  42  43  44  45  46 0
 3-21G
 ****


