%nproc=1
%NoSave
%Mem=1900MB
#P OB98/GEN NMR

erre ene a

0 1
  C       -5.510     108.131     -13.230
  O       -6.857     108.192     -12.757
  P       -7.049     108.609     -11.219
  C       -7.270     111.168     -11.585
  O       -6.501     110.106     -11.040
  C       -7.353     112.336     -10.601
  O       -8.262     112.075      -9.515
  C       -6.018     112.677      -9.955
  O       -5.228     113.445     -10.846
  C       -6.459     113.456      -8.723
  O       -6.704     114.842      -9.039
  C       -7.771     112.756      -8.332
  N       -8.442     112.058      -3.358
  C       -8.525     113.215      -4.109
  N       -8.859     114.340      -3.443
  N       -8.303     113.261      -5.396
  C       -7.981     112.060      -5.930
  C       -7.895     110.843      -5.295
  C       -8.139     110.805      -3.870
  O       -8.100     109.803      -3.165
  N       -7.603     109.835      -6.181
  C       -7.390     110.466      -7.321
  N       -7.669     111.808      -7.237
  O       -5.971     107.707     -10.455
  O       -8.430     108.368     -10.706
  H       -5.881     115.242      -9.372
  H       -6.425     107.022      -9.929
  H       -8.615     112.081      -2.368
  H       -7.060     109.997      -8.236
  H       -8.540     113.480      -8.037
  H       -5.695     113.450      -7.942
  H       -9.046     114.376      -2.453
  H       -5.499     111.759      -9.653
  H       -8.932     115.198      -3.977
  H       -7.729     113.206     -11.156
  H       -8.274     110.817     -11.827
  H       -6.812     111.484     -12.529
  P       -3.837     112.822     -11.341
  C       -4.894     112.730     -13.709
  O       -4.112     112.076     -12.729
  O       -3.585     111.627     -10.304
  O       -2.695     113.782     -11.343
  H       -2.653     111.635     -10.018
  H       -4.571     112.395     -14.698
  H       -4.790     113.816     -13.651
  H       -5.944     112.460     -13.569
  H       -5.507     107.845     -14.261
  H       -4.963     107.410     -12.658
  H       -5.051     109.092     -13.125

 3  4  5  6  7  8  9  10  11  12  23  26  30  31 0
 6-311+G(2d,p)
 ****
 33  35  36  37  38 0
 6-311+G(2d,p)
 ****
 1  2  13  14  15  16  17  18  19  20  21  22  24  25 0
 3-21G
 ****
 27  28  29  32  34  39  40  41  42  43  44  45  46  47  48  49 0
 3-21G
 ****


