%nproc=1
%NoSave
%Mem=1900MB
#P OB98/GEN NMR

erre ene a

0 1
  C      516.884    -544.003     274.639
  O      516.563    -542.840     273.896
  P      516.748    -541.405     274.608
  C      517.615    -540.280     272.409
  O      517.887    -540.652     273.757
  C      518.676    -539.285     271.901
  O      518.493    -538.001     272.572
  C      520.131    -539.738     272.120
  O      520.877    -539.298     270.959
  C      520.534    -538.954     273.355
  O      521.960    -538.812     273.436
  C      519.791    -537.636     273.114
  N      519.634    -536.841     274.328
  C      520.754    -536.134     274.755
  O      521.861    -536.204     274.197
  N      520.577    -535.358     275.877
  C      519.458    -535.292     276.649
  O      519.336    -534.593     277.640
  C      518.334    -536.163     276.215
  C      518.490    -536.885     275.102
  O      517.497    -541.848     275.949
  O      515.468    -540.663     274.782
  H      518.124    -542.584     275.837
  H      522.182    -538.297     274.249
  H      521.365    -534.807     276.179
  H      517.457    -536.203     276.832
  H      517.696    -537.563     274.766
  H      520.302    -537.022     272.362
  H      520.177    -539.459     274.263
  H      520.220    -540.812     272.238
  H      518.499    -539.137     270.822
  H      516.625    -539.804     272.328
  H      517.592    -541.198     271.792
  P      521.224    -540.381     269.833
  C      518.952    -540.106     268.541
  O      519.836    -540.954     269.259
  O      521.766    -541.588     270.746
  O      522.232    -539.930     268.822
  H      521.191    -541.778     271.494
  H      518.209    -540.743     268.044
  H      519.498    -539.556     267.774
  H      518.461    -539.420     269.217
  H      516.711    -544.870     274.037
  H      516.270    -544.048     275.514
  H      517.914    -543.969     274.927

 3  4  5  6  7  8  9  10  11  12  13  24  28  29  30  31  32 0
 6-311+G(2d,p)
 ****
 33  34 0
 6-311+G(2d,p)
 ****
 1  2  14  15  16  17  18  19  20  21  22  23  25  26  27 0
 3-21G
 ****
 35  36  37  38  39  40  41  42  43  44  45 0
 3-21G
 ****


