%nproc=1
%NoSave
%Mem=1900MB
#P OB98/GEN NMR

erre ene a

0 1
  C      -59.922     156.793       2.590
  O      -58.732     156.216       2.090
  H      -60.002     157.816       2.213
  H      -59.901     156.821       3.683
  H      -60.790     156.222       2.251
  P      -58.381     154.740       2.619
  C      -59.903     153.383       0.990
  O      -59.713     153.901       2.298
  C      -60.961     152.286       1.019
  O      -61.294     151.865      -0.321
  C      -60.525     151.019       1.747
  O      -60.600     151.138       3.158
  C      -61.542     150.032       1.209
  O      -62.811     150.244       1.855
  C      -61.602     150.445      -0.280
  N      -60.672     149.692      -1.123
  C      -60.662     150.011      -2.486
  O      -61.414     150.874      -2.934
  N      -59.821     149.316      -3.321
  C      -59.049     148.392      -2.839
  N      -58.246     147.727      -3.713
  C      -59.015     148.038      -1.408
  C      -59.842     148.717      -0.618
  O      -58.438     154.886       4.212
  O      -57.118     154.141       2.101
  H      -63.442     149.620       1.452
  H      -58.358     153.997       4.633
  H      -58.362     147.253      -1.055
  H      -59.873     148.509       0.446
  H      -62.616     150.320      -0.680
  H      -61.263     148.990       1.382
  H      -59.526     150.698       1.434
  H      -61.872     152.707       1.465
  H      -58.336     147.948      -4.696
  H      -58.949     152.980       0.637
  H      -57.751     146.880      -3.463
  H      -60.225     154.181       0.314
  P      -59.784     150.073       4.040
  C      -57.550     151.342       3.661
  O      -58.260     150.118       3.538
  O      -60.311     148.668       3.486
  O      -59.975     150.200       5.519
  H      -60.414     148.021       4.208
  H      -56.555     151.216       3.287
  H      -57.511     151.629       4.691
  H      -58.049     152.102       3.097

 6  7  8  9  10  11  12  13  14  15  16  26  30  31  32  33  35 0
 6-311+G(2d,p)
 ****
 37  38 0
 6-311+G(2d,p)
 ****
 1  2  3  4  5  17  18  19  20  21  22  23  24  25 0
 3-21G
 ****
 27  28  29  34  36  39  40  41  42  43  44  45  46 0
 3-21G
 ****


