%nproc=1
%NoSave
%Mem=1900MB
#P OB98/GEN NMR

erre ene a

0 1
  C      -14.298    -233.211    -400.398
  O      -15.516    -232.492    -400.598
  P      -16.793    -233.252    -401.188
  C      -18.096    -233.182    -398.953
  O      -18.091    -232.852    -400.338
  C      -19.471    -232.892    -398.347
  O      -19.692    -231.471    -398.184
  C      -20.618    -233.366    -399.233
  O      -20.792    -234.760    -399.361
  C      -21.794    -232.564    -398.694
  O      -22.365    -233.178    -397.540
  C      -21.110    -231.226    -398.314
  N      -21.379    -230.164    -399.284
  C      -22.601    -229.513    -399.155
  O      -23.446    -229.823    -398.314
  N      -22.839    -228.511    -400.054
  C      -22.014    -228.127    -401.069
  O      -22.289    -227.235    -401.860
  C      -20.743    -228.864    -401.171
  C      -20.489    -229.833    -400.289
  O      -16.622    -234.712    -401.438
  O      -17.047    -232.481    -402.579
  H      -22.585    -234.097    -397.777
  H      -17.286    -233.150    -403.249
  H      -23.722    -228.022    -399.970
  H      -20.065    -228.592    -401.962
  H      -19.559    -230.391    -400.345
  H      -21.460    -230.880    -397.334
  H      -22.590    -232.469    -399.439
  H      -20.428    -232.997    -400.254
  H      -19.519    -233.350    -397.356
  H      -17.325    -232.606    -398.436
  H      -17.823    -234.237    -398.839
  P      -21.430    -235.450    -400.663
  C      -19.224    -236.486    -401.548
  O      -20.526    -236.716    -401.057
  O      -21.869    -234.551    -401.771
  O      -22.730    -236.162    -400.036
  H      -23.438    -236.154    -400.712
  H      -18.765    -237.453    -401.780
  H      -18.615    -235.980    -400.797
  H      -19.259    -235.890    -402.464
  H      -13.556    -232.551    -400.000
  H      -13.960    -233.606    -401.333
  H      -14.466    -234.014    -399.711

 3  4  5  6  7  8  9  10  11  12  13  23  28  29  30  31  32 0
 6-311+G(2d,p)
 ****
 33  34 0
 6-311+G(2d,p)
 ****
 1  2  14  15  16  17  18  19  20  21  22  24  25  26  27 0
 3-21G
 ****
 35  36  37  38  39  40  41  42  43  44  45 0
 3-21G
 ****


