%nproc=1
%NoSave
%Mem=1900MB
#P OB98/GEN NMR

erre ene a

0 1
  C       73.399     -44.513    -398.926
  O       72.914     -45.587    -399.713
  P       71.347     -45.926    -399.748
  C       71.491     -47.803    -397.998
  O       70.936     -46.533    -398.319
  C       70.953     -48.291    -396.654
  O       71.481     -47.491    -395.563
  C       69.442     -48.198    -396.511
  O       68.779     -49.189    -397.275
  C       69.282     -48.334    -395.007
  O       69.349     -49.711    -394.603
  C       70.516     -47.563    -394.488
  N       70.170     -46.236    -393.992
  C       69.579     -46.190    -392.725
  O       69.290     -47.235    -392.131
  N       69.308     -44.964    -392.172
  C       69.498     -43.884    -392.868
  N       69.273     -42.695    -392.247
  C       69.979     -43.902    -394.266
  C       70.314     -45.097    -394.753
  O       70.896     -46.723    -400.920
  O       70.641     -44.480    -399.732
  H       69.984     -44.450    -400.455
  H       68.541     -50.140    -394.930
  H       70.057     -42.980    -394.826
  H       70.696     -45.208    -395.763
  H       71.004     -48.126    -393.686
  H       68.324     -47.941    -394.654
  H       69.104     -47.206    -396.828
  H       71.290     -49.331    -396.508
  H       68.963     -42.725    -391.278
  H       72.576     -47.708    -397.949
  H       69.690     -41.827    -392.564
  H       71.244     -48.517    -398.790
  P       67.262     -48.881    -397.704
  C       66.141     -50.204    -395.779
  O       66.364     -48.941    -396.377
  O       66.830     -50.190    -398.518
  O       67.087     -47.643    -398.533
  H       66.246     -49.938    -399.259
  H       65.836     -50.048    -394.747
  H       67.047     -50.820    -395.794
  H       65.343     -50.721    -396.315
  H       74.462     -44.445    -399.032
  H       73.153     -44.684    -397.899
  H       72.949     -43.599    -399.253

 3  4  5  6  7  8  9  10  11  12  13  24  27  28  29  30  32 0
 6-311+G(2d,p)
 ****
 34  35 0
 6-311+G(2d,p)
 ****
 1  2  14  15  16  17  18  19  20  21  22  23  25  26 0
 3-21G
 ****
 31  33  36  37  38  39  40  41  42  43  44  45  46 0
 3-21G
 ****


