%nproc=1
%NoSave
%Mem=1900MB
#P OB98/GEN NMR

erre ene a

0 1
  C       86.736    -316.986     147.862
  O       86.110    -317.756     146.854
  H       86.461    -315.938     147.724
  H       87.822    -317.080     147.780
  H       86.405    -317.313     148.852
  P       86.238    -319.352     146.980
  C       84.948    -321.149     148.394
  O       85.052    -319.805     147.957
  C       83.746    -321.322     149.326
  O       84.046    -320.684     150.593
  C       82.454    -320.706     148.787
  O       81.359    -321.530     149.186
  C       82.373    -319.373     149.513
  O       81.039    -318.875     149.571
  C       82.996    -319.734     150.871
  N       83.503    -318.561     151.580
  C       83.086    -318.397     152.903
  O       82.316    -319.211     153.417
  N       83.513    -317.298     153.604
  C       84.240    -316.403     153.015
  N       84.609    -315.323     153.754
  C       84.668    -316.510     151.606
  C       84.276    -317.607     150.959
  O       87.552    -319.504     147.880
  O       86.299    -320.071     145.674
  H       81.073    -317.917     149.787
  H       87.576    -318.893     148.636
  H       85.266    -315.731     151.155
  H       84.552    -317.773     149.923
  H       82.259    -320.233     151.513
  H       82.988    -318.626     148.999
  H       82.459    -320.597     147.699
  H       83.618    -322.391     149.532
  H       84.275    -315.278     154.709
  H       85.860    -321.451     148.919
  H       85.127    -314.539     153.384
  H       84.838    -321.786     147.510
  P       80.990    -322.826     148.324
  C       82.604    -324.625     147.397
  O       82.110    -323.950     148.550
  O       80.620    -322.574     146.902
  O       79.733    -323.435     149.122
  H       79.081    -323.742     148.463
  H       83.340    -325.343     147.692
  H       83.046    -323.915     146.730
  H       81.797    -325.124     146.903

 6  7  8  9  10  11  12  13  14  15  16  26  30  31  32  33  35 0
 6-311+G(2d,p)
 ****
 37  38 0
 6-311+G(2d,p)
 ****
 1  2  3  4  5  17  18  19  20  21  22  23  24  25 0
 3-21G
 ****
 27  28  29  34  36  39  40  41  42  43  44  45  46 0
 3-21G
 ****


