%nproc=1
%NoSave
%Mem=1900MB
#P OB98/GEN NMR

erre ene a

0 1
  C      341.401     -79.100     334.853
  O      340.330     -79.742     335.552
  P      340.459     -81.300     335.915
  C      338.251     -81.973     334.760
  O      339.658     -82.159     334.819
  C      337.647     -82.691     333.540
  O      336.211     -82.850     333.728
  C      337.868     -81.922     332.226
  O      338.423     -82.732     331.189
  C      336.507     -81.312     331.938
  O      336.313     -81.007     330.565
  C      335.543     -82.330     332.566
  N      334.245     -81.720     332.905
  C      333.354     -81.542     331.857
  O      333.622     -81.804     330.686
  N      332.137     -81.002     332.197
  C      331.776     -80.560     333.429
  O      330.693     -80.031     333.676
  C      332.791     -80.708     334.489
  C      333.962     -81.280     334.177
  O      340.169     -81.658     337.336
  O      341.988     -81.627     335.553
  H      336.972     -80.324     330.304
  H      342.337     -82.242     336.227
  H      331.467     -80.885     331.446
  H      332.548     -80.345     335.473
  H      334.735     -81.389     334.934
  H      335.340     -83.156     331.877
  H      336.425     -80.365     332.490
  H      338.605     -81.121     332.356
  H      338.106     -83.677     333.485
  H      338.030     -80.904     334.693
  H      337.797     -82.320     335.700
  P      339.831     -82.452     330.485
  C      339.024     -81.236     328.337
  O      339.690     -81.136     329.578
  O      340.450     -83.624     329.789
  O      340.766     -81.973     331.698
  H      341.651     -82.363     331.591
  H      339.330     -80.396     327.706
  H      337.945     -81.183     328.500
  H      339.273     -82.176     327.824
  H      341.155     -78.071     334.692
  H      341.552     -79.583     333.910
  H      342.297     -79.166     335.435

 3  4  5  6  7  8  9  10  11  12  13  23  28  29  30  31  32 0
 6-311+G(2d,p)
 ****
 33  34 0
 6-311+G(2d,p)
 ****
 1  2  14  15  16  17  18  19  20  21  22  24  25  26  27 0
 3-21G
 ****
 35  36  37  38  39  40  41  42  43  44  45 0
 3-21G
 ****


