%nproc=1
%NoSave
%Mem=1900MB
#P OB98/GEN NMR

erre ene a

0 1
  C      -62.024       0.616     198.527
  O      -63.399       0.282     198.472
  H      -61.566       0.085     199.367
  H      -61.890       1.690     198.685
  H      -61.524       0.314     197.604
  P      -64.325       1.057     197.419
  C      -66.061       1.011     199.336
  O      -65.826       0.860     197.940
  C      -67.556       1.163     199.602
  O      -68.036       2.406     199.053
  C      -68.394       0.070     198.954
  O      -68.296      -1.138     199.679
  C      -69.762       0.725     198.950
  O      -70.390       0.626     200.235
  C      -69.402       2.192     198.623
  N      -69.561       2.510     197.208
  C      -70.792       3.062     196.837
  O      -71.664       3.261     197.681
  N      -71.004       3.352     195.512
  C      -70.072       3.131     194.641
  N      -70.348       3.440     193.346
  C      -68.756       2.563     194.992
  C      -68.573       2.275     196.279
  O      -64.125       0.724     195.971
  O      -64.033       2.601     197.726
  H      -69.865       1.194     200.832
  H      -63.286       2.920     197.187
  H      -68.007       2.400     194.232
  H      -67.632       1.856     196.622
  H      -70.027       2.881     199.202
  H      -70.424       0.261     198.221
  H      -68.084      -0.075     197.914
  H      -67.713       1.191     200.687
  H      -71.269       3.819     193.149
  H      -65.526       1.910     199.659
  H      -69.672       3.394     192.599
  H      -65.664       0.154     199.890
  P      -67.609      -2.430     199.023
  C      -69.292      -4.321     199.513
  O      -68.092      -3.671     199.921
  O      -66.137      -2.329     198.807
  O      -68.437      -2.631     197.666
  H      -68.188      -1.956     196.989
  H      -69.508      -5.125     200.185
  H      -69.170      -4.707     198.522
  H      -70.100      -3.619     199.525

 6  7  8  9  10  11  12  13  14  15  16  26  30  31  32  33  35 0
 6-311+G(2d,p)
 ****
 37  38 0
 6-311+G(2d,p)
 ****
 1  2  3  4  5  17  18  19  20  21  22  23  24  25 0
 3-21G
 ****
 27  28  29  34  36  39  40  41  42  43  44  45  46 0
 3-21G
 ****


