%nproc=1
%NoSave
%Mem=1900MB
#P OB98/GEN NMR

erre ene a

0 1
  C     -851.412     398.647    -125.916
  O     -850.334     398.401    -125.037
  H     -851.028     398.721    -126.932
  H     -851.895     399.590    -125.650
  H     -852.140     397.827    -125.874
  P     -850.682     398.027    -123.522
  C     -851.959     400.276    -123.242
  O     -850.944     399.410    -122.750
  C     -852.635     401.009    -122.079
  O     -853.230     400.012    -121.200
  C     -851.669     401.853    -121.231
  O     -852.359     403.030    -120.804
  C     -851.401     400.966    -120.029
  O     -850.976     401.670    -118.869
  C     -852.770     400.288    -119.860
  N     -852.696     399.063    -119.068
  C     -852.810     399.183    -117.686
  O     -853.061     400.235    -117.095
  N     -852.635     398.022    -116.976
  C     -852.332     396.800    -117.495
  O     -852.161     395.807    -116.800
  C     -852.210     396.733    -118.963
  C     -852.393     397.854    -119.666
  O     -849.277     397.533    -122.939
  O     -851.767     397.007    -123.352
  H     -849.166     396.570    -123.077
  H     -850.063     401.985    -119.028
  H     -852.714     398.099    -115.972
  H     -851.965     395.779    -119.402
  H     -852.286     397.840    -120.744
  H     -853.477     400.981    -119.398
  H     -850.629     400.222    -120.274
  H     -850.744     402.128    -121.753
  H     -853.448     401.622    -122.479
  H     -852.711     399.682    -123.776
  H     -851.512     400.996    -123.939
  P     -852.250     404.332    -121.732
  C     -851.096     405.479    -119.674
  O     -852.054     405.563    -120.736
  O     -853.756     404.471    -122.246
  O     -851.222     404.198    -122.810
  H     -854.410     404.211    -121.584
  H     -851.104     406.391    -119.114
  H     -850.121     405.321    -120.085
  H     -851.348     404.663    -119.030

 6  7  8  9  10  11  12  13  14  15  16  27  31  32  33  34  35 0
 6-311+G(2d,p)
 ****
 36  37 0
 6-311+G(2d,p)
 ****
 1  2  3  4  5  17  18  19  20  21  22  23  24  25 0
 3-21G
 ****
 26  28  29  30  38  39  40  41  42  43  44  45 0
 3-21G
 ****


