%nproc=1
%NoSave
%Mem=1900MB
#P OB98/GEN NMR

erre ene a

0 1
  C     -451.510     237.959     153.578
  O     -450.419     238.855     153.352
  P     -449.658     238.749     151.943
  C     -448.650     241.153     152.202
  O     -448.419     239.759     152.045
  C     -447.689     241.729     153.239
  O     -447.818     241.028     154.500
  C     -446.219     241.610     152.860
  O     -445.866     242.551     151.858
  C     -445.554     241.832     154.212
  O     -445.491     243.236     154.514
  C     -446.540     241.131     155.172
  N     -446.068     239.828     155.625
  C     -445.459     239.808     156.877
  O     -445.296     240.815     157.564
  N     -445.025     238.582     157.307
  C     -445.108     237.412     156.612
  O     -444.709     236.343     157.053
  C     -445.717     237.508     155.275
  C     -446.162     238.690     154.847
  O     -450.695     239.485     150.977
  O     -449.325     237.345     151.566
  H     -451.158     240.225     151.408
  H     -445.208     243.304     155.447
  H     -444.590     238.542     158.219
  H     -445.777     236.601     154.683
  H     -446.610     238.782     153.865
  H     -446.712     241.755     156.056
  H     -444.532     241.443     154.245
  H     -446.006     240.593     152.504
  H     -447.954     242.780     153.402
  H     -449.679     241.323     152.532
  H     -448.527     241.645     151.232
  P     -445.580     241.970     150.387
  C     -447.553     243.275     149.280
  O     -446.164     243.045     149.355
  O     -446.624     240.759     150.323
  O     -444.156     241.569     150.166
  H     -447.500     240.994     150.668
  H     -447.724     244.247     148.804
  H     -448.013     243.287     150.270
  H     -448.023     242.499     148.668
  H     -451.923     238.137     154.549
  H     -451.161     236.949     153.519
  H     -452.263     238.120     152.835

 3  4  5  6  7  8  9  10  11  12  13  24  28  29  30  31  32 0
 6-311+G(2d,p)
 ****
 33  34 0
 6-311+G(2d,p)
 ****
 1  2  14  15  16  17  18  19  20  21  22  23  25  26  27 0
 3-21G
 ****
 35  36  37  38  39  40  41  42  43  44  45 0
 3-21G
 ****


