%nproc=1
%NoSave
%Mem=1900MB
#P OB98/GEN NMR

erre ene a

0 1
  C      193.205      98.691     -80.397
  O      191.918      98.962     -79.880
  H      193.156      97.785     -81.007
  H      193.912      98.523     -79.579
  H      193.555      99.516     -81.027
  P      191.672     100.339     -79.101
  C      192.613     101.462     -76.973
  O      192.577     100.291     -77.779
  C      192.608     101.095     -75.483
  O      191.276     100.598     -75.133
  C      193.617      99.996     -75.095
  O      194.009     100.242     -73.738
  C      192.744      98.755     -75.202
  O      193.347      97.618     -74.639
  C      191.464      99.292     -74.543
  N      190.273      98.470     -74.723
  C      190.257      97.214     -74.123
  O      191.178      96.750     -73.445
  N      189.121      96.471     -74.326
  C      188.023      96.859     -75.039
  O      187.022      96.163     -75.160
  C      188.103      98.192     -75.655
  C      189.203      98.930     -75.469
  O      190.244     100.713     -78.878
  O      192.428     101.425     -80.007
  H      191.776     101.916     -80.544
  H      194.168      97.413     -75.139
  H      189.091      95.561     -73.893
  H      187.253      98.528     -76.238
  H      189.286      99.921     -75.904
  H      191.635      99.447     -73.471
  H      192.567      98.510     -76.254
  H      194.504      99.981     -75.735
  H      192.770     102.005     -74.895
  H      191.730     102.066     -77.210
  H      193.515     102.035     -77.214
  P      195.498     100.671     -73.313
  C      197.904      99.935     -73.936
  O      196.524      99.588     -73.915
  O      195.666     100.906     -71.844
  O      195.811     102.003     -74.150
  H      196.471     102.540     -73.673
  H      198.468      99.130     -74.359
  H      198.240     100.120     -72.937
  H      198.041     100.816     -74.528

 6  7  8  9  10  11  12  13  14  15  16  27  31  32  33  34  35 0
 6-311+G(2d,p)
 ****
 36  37 0
 6-311+G(2d,p)
 ****
 1  2  3  4  5  17  18  19  20  21  22  23  24  25 0
 3-21G
 ****
 26  28  29  30  38  39  40  41  42  43  44  45 0
 3-21G
 ****


