%nproc=1
%NoSave
%Mem=1900MB
#P OB98/GEN NMR

erre ene a

0 1
  C     -250.760       7.105      80.982
  O     -251.450       8.346      80.982
  P     -252.265       8.739      82.311
  C     -254.147       7.579      83.669
  O     -253.432       7.645      82.440
  C     -255.439       6.790      83.494
  O     -256.313       7.481      82.582
  C     -255.255       5.399      82.904
  O     -254.850       4.455      83.883
  C     -256.665       5.103      82.408
  O     -257.476       4.639      83.501
  C     -257.142       6.486      81.933
  N     -258.595       4.753      77.401
  C     -258.916       4.301      78.665
  N     -259.769       3.254      78.731
  N     -258.445       4.826      79.766
  C     -257.637       5.890      79.547
  C     -257.243       6.430      78.342
  C     -257.731       5.807      77.130
  O     -257.428       6.122      75.980
  N     -256.427       7.518      78.526
  C     -256.359       7.660      79.834
  N     -257.050       6.678      80.498
  O     -253.050      10.065      81.875
  O     -251.429       8.963      83.524
  H     -257.368       5.277      84.231
  H     -253.249      10.606      82.664
  H     -259.000       4.322      76.587
  H     -255.823       8.452      80.339
  H     -258.176       6.676      82.244
  H     -256.692       4.326      81.637
  H     -260.265       2.895      77.931
  H     -254.564       5.418      82.054
  H     -260.046       2.934      79.653
  H     -255.940       6.733      84.470
  H     -254.391       8.595      83.999
  H     -253.509       7.111      84.425
  P     -253.845       3.301      83.398
  C     -253.832       1.789      81.285
  O     -254.594       2.576      82.184
  O     -253.912       2.232      84.589
  O     -252.453       3.768      83.137
  H     -253.087       1.711      84.621
  H     -253.029       1.257      81.800
  H     -253.402       2.433      80.511
  H     -254.489       1.055      80.814
  H     -250.265       6.972      80.043
  H     -251.458       6.309      81.133
  H     -250.037       7.099      81.771

 3  4  5  6  7  8  9  10  11  12  23  26  30  31  33  0
 6-311+G(2d,p)
 ****
 35  36  37  38 0
 6-311+G(2d,p)
 ****
 1  2  13  14  15  16  17  18  19  20  21  22  24  25  27  28  29 0
 3-21G
 ****
 32  34  39  40  41  42  43  44  45  46  47  48  49 0
 3-21G
 ****


