%nproc=1
%NoSave
%Mem=1900MB
#P OB98/GEN NMR

erre ene a

0 1
  C      628.363     537.183     621.801
  O      627.624     536.080     622.305
  P      627.067     535.009     621.246
  C      624.674     534.468     620.345
  O      625.547     535.454     620.909
  C      623.258     535.011     620.207
  O      622.645     535.111     621.525
  C      623.175     536.384     619.538
  O      622.009     536.417     618.722
  C      622.979     537.336     620.692
  O      622.345     538.552     620.301
  C      622.158     536.454     621.668
  N      622.248     536.929     623.055
  C      621.167     537.633     623.561
  O      620.210     537.924     622.824
  N      621.187     538.062     624.866
  C      622.270     537.882     625.571
  N      622.241     538.307     626.861
  C      623.484     537.230     625.039
  C      623.393     536.773     623.803
  O      626.883     533.692     622.128
  O      627.950     534.785     620.065
  H      621.445     538.336     619.977
  H      627.042     532.893     621.593
  H      624.369     537.142     625.661
  H      624.229     536.261     623.322
  H      621.089     536.474     621.380
  H      623.951     537.593     621.157
  H      624.052     536.612     618.929
  H      622.655     534.281     619.639
  H      621.405     538.760     627.206
  H      624.649     533.607     621.016
  H      623.033     538.215     627.488
  H      625.066     534.150     619.382
  P      621.989     537.423     617.463
  C      621.482     539.926     617.168
  O      621.468     538.816     618.046
  O      620.694     536.902     616.654
  O      623.195     537.452     616.578
  H      620.606     537.401     615.824
  H      620.972     540.761     617.650
  H      620.957     539.676     616.226
  H      622.513     540.204     616.954
  H      628.668     537.809     622.613
  H      627.750     537.746     621.128
  H      629.227     536.826     621.282

 3  4  5  6  7  8  9  10  11  12  13  21  23  27  28  29  30  32 0
 6-311+G(2d,p)
 ****
 34  35 0
 6-311+G(2d,p)
 ****
 1  2  14  15  16  17  18  19  20  22  24  25  26 0
 3-21G
 ****
 31  33  36  37  38  39  40  41  42  43  44  45  46 0
 3-21G
 ****


