%nproc=1
%NoSave
%Mem=1900MB
#P OB98/GEN NMR

erre ene a

0 1
  C        6.019      11.796      47.339
  O        6.306      11.989      45.971
  P        5.491      11.277      44.796
  C        3.865      13.194      44.138
  O        4.995      12.411      43.770
  C        3.816      14.550      43.419
  O        4.900      15.379      43.882
  C        4.031      14.357      41.915
  O        2.947      14.001      41.080
  C        4.811      15.586      41.467
  O        3.972      16.584      40.883
  C        5.436      16.102      42.764
  N        9.803      17.490      40.597
  C        8.544      18.036      40.444
  N        8.410      18.938      39.448
  N        7.518      17.708      41.184
  C        7.787      16.723      42.073
  C        8.994      16.116      42.326
  C       10.130      16.518      41.530
  O       11.242      15.998      41.578
  N        8.875      15.108      43.247
  C        7.588      15.076      43.525
  N        6.881      16.011      42.807
  O        4.530      10.205      45.197
  O        6.683      10.570      43.968
  H        3.184      16.682      41.447
  H        6.333       9.731      43.611
  H       10.539      17.726      39.944
  H        7.116      14.379      44.207
  H        5.179      17.157      42.923
  H        5.549      15.318      40.702
  H        9.139      19.106      38.769
  H        4.734      13.522      41.802
  H        7.473      19.231      39.197
  H        2.900      15.092      43.667
  H        3.902      13.333      45.223
  H        2.950      12.638      43.917
  P        2.975      12.937      39.888
  C        2.069      10.984      41.267
  O        1.843      11.840      40.162
  O        4.330      12.116      40.122
  O        2.958      13.529      38.516
  H        4.613      11.702      39.285
  H        1.419      10.111      41.180
  H        1.829      11.514      42.195
  H        3.110      10.652      41.299
  H        6.697      12.375      47.931
  H        6.128      10.760      47.584
  H        5.015      12.106      47.540

 3  4  5  6  7  8  9  10  11  12  23  26  30  31 0
 6-311+G(2d,p)
 ****
 33  35  36  37  38 0
 6-311+G(2d,p)
 ****
 1  2  13  14  15  16  17  18  19  20  21  22  24  25 0
 3-21G
 ****
 27  28  29  32  34  39  40  41  42  43  44  45  46  47  48  49 0
 3-21G
 ****


