%nproc=1
%NoSave
%Mem=1900MB
#P OB98/GEN NMR

erre ene a

0 1
  C      757.388    -449.063     879.343
  O      758.436    -450.024     879.542
  P      758.194    -451.219     880.588
  C      758.544    -452.940     878.694
  O      757.709    -452.535     879.781
  C      757.933    -454.154     877.980
  O      757.744    -455.267     878.909
  C      756.549    -453.843     877.374
  O      756.352    -454.599     876.160
  C      755.599    -454.395     878.424
  O      754.295    -454.641     877.875
  C      756.349    -455.629     878.883
  N      754.572    -459.640     881.524
  C      754.979    -459.525     880.261
  N      755.470    -458.437     879.618
  C      755.517    -457.388     880.456
  C      755.145    -457.360     881.795
  C      754.648    -458.554     882.328
  N      754.198    -458.663     883.640
  N      755.334    -456.099     882.333
  C      755.779    -455.367     881.324
  N      755.927    -456.108     880.179
  O      757.367    -450.890     881.775
  O      759.688    -451.618     881.008
  H      753.735    -454.963     878.603
  H      759.708    -451.769     881.976
  H      754.904    -460.423     879.650
  H      755.987    -454.304     881.380
  H      756.246    -456.461     878.159
  H      755.490    -453.659     879.230
  H      756.373    -452.784     877.163
  H      758.622    -454.503     877.209
  H      759.530    -453.200     879.075
  H      753.740    -459.516     883.894
  H      754.107    -457.846     884.195
  H      758.690    -452.094     878.012
  P      756.446    -453.763     874.797
  C      758.446    -455.235     873.970
  O      757.951    -453.937     874.273
  O      755.953    -452.345     874.913
  O      755.573    -454.658     873.797
  H      755.810    -455.607     873.797
  H      759.433    -455.119     873.517
  H      757.793    -455.735     873.264
  H      758.536    -455.824     874.879
  H      757.702    -448.337     878.622
  H      757.172    -448.574     880.270
  H      756.510    -449.561     878.989

 3  4  5  6  7  8  9  10  11  12  22  25  29  30  31  32 0
 6-311+G(2d,p)
 ****
 33  36  37 0
 6-311+G(2d,p)
 ****
 1  2  13  14  15  16  17  18  19  20  21  23  24  26 0
 3-21G
 ****
 27  28  34  35  38  39  40  41  42  43  44  45  46  47  48 0
 3-21G
 ****


