%nproc=1
%NoSave
%Mem=1900MB
#P OB98/GEN NMR

erre ene a

0 1
  C      -77.200      36.973       3.084
  O      -76.689      36.070       4.046
  H      -77.846      37.699       3.588
  H      -77.791      36.438       2.335
  H      -76.380      37.513       2.597
  P      -75.755      34.881       3.500
  C      -73.615      36.098       4.337
  O      -74.305      35.520       3.235
  C      -72.161      35.628       4.332
  O      -71.549      35.936       3.053
  C      -71.285      36.310       5.376
  O      -71.474      35.766       6.669
  C      -69.898      36.030       4.813
  O      -69.425      34.730       5.198
  C      -70.136      36.108       3.287
  N      -69.632      37.348       2.715
  C      -68.757      37.209       1.635
  O      -68.420      36.116       1.179
  N      -68.257      38.376       1.119
  C      -68.504      39.632       1.586
  O      -67.959      40.631       1.124
  C      -69.447      39.720       2.721
  C      -69.952      38.591       3.230
  O      -76.329      34.616       2.030
  O      -75.754      33.645       4.336
  H      -76.883      33.815       2.027
  H      -69.945      34.087       4.680
  H      -67.615      38.292       0.348
  H      -69.667      40.708       3.115
  H      -70.629      38.633       4.076
  H      -69.631      35.267       2.783
  H      -69.166      36.755       5.173
  H      -71.459      37.396       5.367
  H      -72.147      34.537       4.469
  H      -74.089      35.783       5.273
  H      -73.677      37.193       4.263
  P      -71.304      36.742       7.937
  C      -73.788      37.539       7.581
  O      -72.429      37.878       7.793
  O      -69.941      37.491       7.573
  O      -71.304      36.030       9.248
  H      -69.840      37.658       6.617
  H      -74.372      38.433       7.513
  H      -74.139      36.945       8.399
  H      -73.879      36.983       6.671

 6  7  8  9  10  11  12  13  14  15  16  27  31  32  33  34  35 0
 6-311+G(2d,p)
 ****
 36  37 0
 6-311+G(2d,p)
 ****
 1  2  3  4  5  17  18  19  20  21  22  23  24  25 0
 3-21G
 ****
 26  28  29  30  38  39  40  41  42  43  44  45 0
 3-21G
 ****


