%nproc=1
%NoSave
%Mem=1900MB
#P OB98/GEN NMR

erre ene a

0 1
  C      340.327    -434.459    1075.311
  O      339.701    -435.735    1075.435
  P      340.097    -436.576    1076.761
  C      337.880    -436.661    1078.133
  O      339.175    -436.072    1077.973
  C      336.795    -435.564    1078.153
  O      336.793    -434.746    1076.973
  C      335.360    -436.139    1078.285
  O      335.098    -436.500    1079.623
  C      334.547    -434.922    1077.772
  O      334.307    -433.997    1078.846
  C      335.433    -434.326    1076.728
  N      333.976    -432.455    1072.241
  C      334.124    -431.807    1073.441
  N      333.868    -430.477    1073.451
  N      334.494    -432.421    1074.536
  C      334.715    -433.733    1074.369
  C      334.629    -434.470    1073.201
  C      334.259    -433.788    1071.983
  O      334.109    -434.298    1070.894
  N      335.019    -435.781    1073.411
  C      335.189    -435.887    1074.739
  N      335.087    -434.655    1075.344
  O      341.568    -436.057    1077.115
  O      340.073    -438.062    1076.535
  H      333.833    -434.439    1079.561
  H      342.218    -436.766    1076.940
  H      333.701    -431.923    1071.413
  H      335.381    -436.786    1075.235
  H      335.428    -433.214    1076.790
  H      333.570    -435.273    1077.438
  H      333.574    -429.945    1072.684
  H      335.244    -436.981    1077.593
  H      333.963    -429.980    1074.370
  H      337.010    -434.908    1079.008
  H      337.839    -437.247    1079.053
  H      337.704    -437.355    1077.273
  P      335.507    -437.974    1080.107
  C      337.004    -437.554    1082.213
  O      336.959    -437.862    1080.857
  O      335.806    -438.734    1078.729
  O      334.438    -438.669    1080.876
  H      335.388    -439.585    1078.727
  H      337.867    -438.026    1082.631
  H      336.104    -437.962    1082.746
  H      337.050    -436.481    1082.313
  H      340.001    -433.988    1074.407
  H      341.389    -434.584    1075.285
  H      340.060    -433.848    1076.148

 3  4  5  6  7  8  9  10  11  12  23  26  30  31 0
 6-311+G(2d,p)
 ****
 33  35  36  37  38 0
 6-311+G(2d,p)
 ****
 1  2  13  14  15  16  17  18  19  20  21  22  24  25 0
 3-21G
 ****
 27  28  29  32  34  39  40  41  42  43  44  45  46  47  48  49 0
 3-21G
 ****


