%nproc=1
%NoSave
%Mem=1900MB
#P OB98/GEN NMR

erre ene a

0 1
  C     -104.053     203.316     165.380
  O     -103.712     202.495     166.500
  P     -104.322     202.854     167.939
  C     -104.067     204.746     169.677
  O     -103.480     204.072     168.573
  C     -102.991     205.282     170.628
  O     -102.134     204.198     171.105
  C     -102.064     206.310     169.951
  O     -101.640     207.300     170.895
  C     -100.860     205.482     169.559
  O      -99.707     206.297     169.354
  C     -100.771     204.532     170.753
  N      -96.095     202.577     170.009
  C      -96.503     203.821     170.367
  N      -97.767     204.259     170.567
  C      -98.652     203.262     170.381
  C      -98.384     201.952     170.025
  C      -97.027     201.617     169.827
  N      -96.609     200.361     169.437
  N      -99.545     201.220     169.917
  C     -100.510     202.091     170.163
  N     -100.015     203.323     170.475
  O     -104.539     201.694     168.858
  O     -105.718     203.559     167.567
  H      -99.403     206.600     170.236
  H     -106.408     203.247     168.184
  H      -95.714     204.555     170.498
  H     -101.570     201.878     170.107
  H     -100.317     205.014     171.630
  H     -101.068     204.938     168.631
  H     -102.514     206.821     169.089
  H     -103.471     205.714     171.510
  H     -104.731     204.057     170.217
  H      -95.636     200.251     169.208
  H      -97.305     199.677     169.158
  H     -104.714     205.550     169.308
  P     -102.283     208.769     170.727
  C     -101.881     210.717     169.028
  O     -101.663     209.372     169.380
  O     -102.163     209.619     171.950
  O     -103.800     208.419     170.336
  H     -103.897     207.772     169.612
  H     -101.269     210.955     168.155
  H     -101.595     211.379     169.850
  H     -102.934     210.873     168.779
  H     -103.567     202.943     164.503
  H     -103.734     204.321     165.564
  H     -105.113     203.299     165.235

 3  4  5  6  7  8  9  10  11  12  22  25  29  30  31  32 0
 6-311+G(2d,p)
 ****
 33  36  37 0
 6-311+G(2d,p)
 ****
 1  2  13  14  15  16  17  18  19  20  21  23  24  26 0
 3-21G
 ****
 27  28  34  35  38  39  40  41  42  43  44  45  46  47  48 0
 3-21G
 ****


