%nproc=1
%NoSave
%Mem=1900MB
#P OB98/GEN NMR

erre ene a

0 1
  C       87.690      47.191     144.876
  O       88.253      45.911     145.097
  P       87.385      44.849     145.926
  C       87.874      45.948     148.240
  O       86.903      45.574     147.271
  C       87.176      46.530     149.471
  O       86.463      47.737     149.121
  C       86.134      45.600     150.077
  O       86.737      44.588     150.865
  C       85.285      46.572     150.883
  O       85.878      46.835     152.164
  C       85.319      47.835     149.997
  N       84.081      48.032     149.252
  C       82.944      48.281     150.016
  O       82.959      48.314     151.246
  N       81.780      48.451     149.319
  C       81.630      48.343     147.967
  O       80.548      48.451     147.403
  C       82.861      48.050     147.213
  C       84.008      47.903     147.880
  O       88.467      43.784     146.434
  O       86.291      44.200     145.148
  H       85.272      47.443     152.632
  H       88.074      42.889     146.440
  H       80.951      48.657     149.852
  H       82.780      47.956     146.138
  H       84.922      47.672     147.343
  H       85.491      48.724     150.616
  H       84.279      46.186     151.069
  H       85.517      45.160     149.282
  H       87.940      46.788     150.213
  H       88.545      46.695     147.809
  H       88.464      45.069     148.513
  P       86.125      43.109     150.744
  C       84.815      43.034     153.002
  O       84.770      43.148     151.597
  O       87.162      42.283     151.643
  O       86.008      42.639     149.333
  H       87.514      42.813     152.377
  H       85.700      43.524     153.416
  H       84.820      41.978     153.280
  H       83.922      43.505     153.423
  H       88.376      47.790     144.314
  H       87.494      47.662     145.817
  H       86.775      47.089     144.331

 3  4  5  6  7  8  9  10  11  12  13  23  28  29  30  31  32 0
 6-311+G(2d,p)
 ****
 33  34 0
 6-311+G(2d,p)
 ****
 1  2  14  15  16  17  18  19  20  21  22  24  25  26 0
 3-21G
 ****
 27  35  36  37  38  39  40  41  42  43  44  45 0
 3-21G
 ****


