%nproc=1
%NoSave
%Mem=1900MB
#P OB98/GEN NMR

erre ene a

0 1
  C     -165.337    -653.183     639.569
  O     -165.654    -653.478     638.225
  H     -164.266    -653.319     639.735
  H     -165.591    -652.137     639.768
  H     -165.906    -653.821     640.252
  P     -165.647    -655.022     637.789
  C     -167.840    -655.139     636.405
  O     -167.186    -655.456     637.627
  C     -168.995    -656.111     636.155
  O     -168.435    -657.439     635.942
  C     -170.005    -656.204     637.303
  O     -171.323    -656.329     636.741
  C     -169.641    -657.509     637.988
  O     -170.736    -658.095     638.689
  C     -169.153    -658.339     636.806
  N     -168.829    -662.161     640.150
  C     -169.876    -661.411     639.743
  N     -169.882    -660.444     638.801
  C     -168.680    -660.327     638.220
  C     -167.514    -661.031     638.529
  C     -167.625    -661.970     639.568
  N     -166.558    -662.697     640.044
  N     -166.471    -660.584     637.749
  C     -166.968    -659.625     637.008
  N     -168.302    -659.431     637.258
  O     -165.188    -655.759     639.143
  O     -164.758    -655.368     636.641
  H     -171.021    -657.477     639.397
  H     -164.215    -655.797     639.180
  H     -170.823    -661.598     640.233
  H     -166.418    -659.015     636.306
  H     -169.982    -658.789     636.232
  H     -168.834    -657.329     638.707
  H     -169.984    -655.350     637.989
  H     -169.491    -655.821     635.222
  H     -167.120    -655.218     635.588
  H     -166.704    -663.270     640.857
  H     -165.630    -662.486     639.688
  H     -168.217    -654.112     636.455
  P     -172.070    -654.987     636.298
  C     -170.977    -655.286     633.952
  O     -171.340    -654.394     635.002
  O     -171.667    -653.947     637.454
  O     -173.556    -655.123     636.182
  H     -172.393    -653.314     637.607
  H     -170.503    -654.737     633.166
  H     -171.855    -655.766     633.573
  H     -170.301    -656.025     634.329

 6  7  8  9  10  11  12  13  14  15  25  28  32  33  34  35 0
 6-311+G(2d,p)
 ****
 36  39  40 0
 6-311+G(2d,p)
 ****
 1  2  3  4  5  16  17  18  19  20  21  22  23  24 0
 3-21G
 ****
 26  27  29  30  31  37  38  41  42  43  44  45  46  47 0
 3-21G
 ****
 48 0
 3-21G
 ****


