%nproc=1
%NoSave
%Mem=1900MB
#P OB98/GEN NMR

erre ene a

0 1
  C     -411.432    -788.882    -975.487
  O     -410.807    -788.818    -974.216
  H     -411.311    -787.935    -976.011
  H     -410.964    -789.671    -976.076
  H     -412.496    -789.112    -975.372
  P     -411.364    -787.723    -973.174
  C     -413.215    -789.180    -972.076
  O     -411.954    -788.554    -971.934
  C     -413.739    -789.623    -970.711
  O     -412.927    -790.682    -970.171
  C     -413.728    -788.502    -969.650
  O     -414.832    -787.645    -969.772
  C     -413.801    -789.356    -968.380
  O     -415.152    -789.805    -968.172
  C     -412.885    -790.538    -968.723
  N     -409.487    -791.282    -964.958
  C     -410.803    -791.574    -965.071
  N     -411.641    -791.341    -966.098
  C     -410.981    -790.737    -967.102
  C     -409.644    -790.377    -967.145
  C     -408.879    -790.667    -965.998
  N     -407.546    -790.370    -965.876
  N     -409.336    -789.736    -968.338
  C     -410.469    -789.757    -969.015
  N     -411.504    -790.334    -968.305
  O     -412.684    -787.165    -973.898
  O     -410.403    -786.642    -972.816
  H     -415.187    -790.192    -967.275
  H     -412.917    -786.294    -973.530
  H     -411.262    -792.061    -964.186
  H     -410.598    -789.355    -970.023
  H     -413.227    -791.473    -968.288
  H     -413.503    -788.781    -967.488
  H     -412.773    -787.946    -969.673
  H     -414.765    -790.015    -970.846
  H     -413.119    -790.070    -972.714
  H     -407.135    -790.462    -964.969
  H     -407.116    -789.774    -966.588
  H     -413.925    -788.488    -972.558
  P     -414.548    -786.064    -969.726
  C     -415.223    -785.124    -972.055
  O     -415.618    -785.400    -970.733
  O     -413.165    -785.906    -970.524
  O     -414.499    -785.471    -968.362
  H     -412.667    -785.121    -970.239
  H     -416.042    -784.689    -972.588
  H     -414.927    -786.033    -972.536
  H     -414.400    -784.441    -972.046

 6  7  8  9  10  11  12  13  14  15  25  28  32  33  34  35 0
 6-311+G(2d,p)
 ****
 36  39  40 0
 6-311+G(2d,p)
 ****
 1  2  3  4  5  16  17  18  19  20  21  22  23  24 0
 3-21G
 ****
 26  27  29  30  31  37  38  41  42  43  44  45  46  47 0
 3-21G
 ****
 48 0
 3-21G
 ****


