%nproc=1
%NoSave
%Mem=1900MB
#P OB98/GEN NMR

erre ene a

0 1
  C      -75.335     124.506     159.387
  O      -74.562     123.759     158.472
  H      -75.656     125.430     158.901
  H      -74.728     124.760     160.261
  H      -76.220     123.950     159.704
  P      -74.266     122.219     158.790
  C      -71.913     122.654     159.756
  O      -73.225     122.179     160.011
  C      -70.860     121.744     160.399
  O      -70.964     121.825     161.841
  C      -71.112     120.284     160.016
  O      -69.911     119.516     160.002
  C      -72.005     119.789     161.143
  O      -71.985     118.372     161.292
  C      -71.423     120.552     162.333
  N      -73.433     118.733     166.647
  C      -72.553     118.129     165.771
  N      -72.178     116.867     166.072
  N      -72.099     118.706     164.688
  C      -72.619     119.939     164.475
  C      -73.515     120.631     165.256
  C      -73.980     119.998     166.472
  O      -74.774     120.479     167.276
  N      -73.825     121.849     164.705
  C      -73.125     121.891     163.590
  N      -72.365     120.761     163.413
  O      -73.367     121.741     157.552
  O      -75.473     121.347     158.960
  H      -72.142     117.982     160.412
  H      -73.448     120.779     157.425
  H      -73.740     118.250     167.473
  H      -73.127     122.713     162.883
  H      -70.559     120.019     162.748
  H      -73.035     120.076     160.915
  H      -72.634     116.325     166.790
  H      -71.603     120.192     159.046
  H      -71.780     116.314     165.307
  H      -69.852     122.082     160.132
  H      -71.845     123.661     160.182
  H      -71.743     122.739     158.681
  P      -69.343     119.056     158.576
  C      -69.756     116.468     158.681
  O      -70.125     117.725     158.143
  O      -67.862     118.554     158.906
  O      -69.355     120.138     157.547
  H      -67.209     119.210     158.600
  H      -70.389     115.707     158.275
  H      -69.863     116.490     159.745
  H      -68.738     116.257     158.429

 6  7  8  9  10  11  12  13  14  15  26  29  33  34 0
 6-311+G(2d,p)
 ****
 36  38  39  40  41 0
 6-311+G(2d,p)
 ****
 1  2  3  4  5  16  17  18  19  20  21  22  23  24  25 0
 3-21G
 ****
 27  28  30  31  32  35  37  42  43  44  45  46  47 0
 3-21G
 ****
 48  49 0
 3-21G
 ****


