%nproc=1
%NoSave
%Mem=1900MB
#P OB98/GEN NMR

erre ene a

0 1
  C      300.951      19.632    -134.434
  O      300.268      19.152    -135.581
  P      299.011      20.003    -136.106
  C      298.857      22.251    -137.396
  O      299.566      21.471    -136.442
  C      299.220      23.733    -137.283
  O      298.600      24.279    -136.093
  C      300.724      24.006    -137.201
  O      300.990      25.207    -137.924
  C      300.958      24.255    -135.724
  O      302.122      25.045    -135.500
  C      299.632      24.922    -135.321
  N      299.373      24.815    -133.888
  C      299.993      25.756    -133.063
  O      300.779      26.574    -133.540
  N      299.747      25.714    -131.714
  C      299.035      24.751    -131.218
  N      298.818      24.755    -129.877
  C      298.465      23.666    -132.043
  C      298.653      23.771    -133.357
  O      298.153      20.229    -134.774
  O      298.219      19.343    -137.184
  H      301.960      25.940    -135.874
  H      297.199      20.265    -134.977
  H      297.909      22.865    -131.575
  H      298.252      23.035    -134.041
  H      299.637      25.987    -135.593
  H      301.081      23.300    -135.198
  H      301.326      23.187    -137.608
  H      298.787      24.257    -138.145
  H      299.230      25.501    -129.331
  H      297.785      22.148    -137.215
  H      298.275      24.044    -129.403
  H      299.070      21.877    -138.402
  P      302.428      25.352    -138.621
  C      303.657      23.969    -140.400
  O      302.642      23.975    -139.417
  O      303.413      25.154    -137.370
  O      302.736      26.613    -139.354
  H      304.334      25.281    -137.652
  H      303.786      22.945    -140.762
  H      304.605      24.315    -139.977
  H      303.365      24.603    -141.242
  H      301.760      18.972    -134.199
  H      300.273      19.675    -133.607
  H      301.335      20.611    -134.631

 3  4  5  6  7  8  9  10  11  12  13  21  23  27  28  29  30  32 0
 6-311+G(2d,p)
 ****
 34  35 0
 6-311+G(2d,p)
 ****
 1  2  14  15  16  17  18  19  20  22  24  25  26 0
 3-21G
 ****
 31  33  36  37  38  39  40  41  42  43  44  45  46 0
 3-21G
 ****


