%nproc=1
%NoSave
%Mem=1900MB
#P OB98/GEN NMR

erre ene a

0 1
  C     -208.145     -12.618     110.005
  O     -207.056     -11.915     110.578
  H     -207.871     -12.918     108.989
  H     -209.022     -11.964     109.956
  H     -208.374     -13.510     110.594
  P     -207.249     -11.417     112.094
  C     -208.949      -9.491     111.628
  O     -208.727     -10.790     112.167
  C     -210.432      -9.115     111.755
  O     -211.225     -10.108     111.035
  C     -210.942      -9.099     113.205
  O     -211.998      -8.129     113.306
  C     -211.532     -10.493     113.343
  O     -212.384     -10.564     114.462
  C     -212.188     -10.635     111.969
  N     -215.345     -14.495     113.039
  C     -215.299     -13.216     113.479
  N     -214.432     -12.242     113.137
  C     -213.552     -12.694     112.220
  C     -213.471     -13.968     111.688
  C     -214.419     -14.901     112.136
  N     -214.458     -16.212     111.712
  N     -212.415     -14.055     110.798
  C     -211.870     -12.847     110.794
  N     -212.528     -11.996     111.641
  O     -206.285     -10.139     112.178
  O     -206.939     -12.423     113.151
  H     -212.950     -11.361     114.426
  H     -205.404     -10.406     112.511
  H     -216.071     -12.940     114.200
  H     -211.010     -12.545     110.216
  H     -213.105     -10.032     111.885
  H     -210.745     -11.246     113.480
  H     -210.162      -8.870     113.937
  H     -210.597      -8.152     111.261
  H     -208.652      -9.499     110.575
  H     -208.337      -8.763     112.178
  H     -215.154     -16.823     112.107
  H     -213.752     -16.539     111.060
  P     -211.613      -6.565     113.432
  C     -212.674      -6.141     115.783
  O     -211.505      -6.141     114.975
  O     -212.983      -5.854     112.984
  O     -210.486      -6.112     112.564
  H     -212.788      -5.130     112.354
  H     -212.421      -5.835     116.776
  H     -213.090      -7.127     115.809
  H     -213.391      -5.462     115.372

 6  7  8  9  10  11  12  13  14  15  25  28  32  33  34  35 0
 6-311+G(2d,p)
 ****
 36  37  40 0
 6-311+G(2d,p)
 ****
 1  2  3  4  5  16  17  18  19  20  21  22  23  24 0
 3-21G
 ****
 26  27  29  30  31  38  39 41  42  43  44  45  46  47  48 0
 3-21G
 ****


