%nproc=1
%NoSave
%Mem=1900MB
#P OB98/GEN NMR

erre ene a

0 1
  C      142.312     154.832     954.977
  O      140.969     155.230     955.197
  H      142.971     155.679     955.222
  H      142.458     154.570     953.920
  H      142.574     153.981     955.613
  P      139.850     154.079     955.072
  C      140.108     153.690     952.484
  O      139.289     154.137     953.562
  C      139.335     153.794     951.171
  O      138.171     152.921     951.188
  C      138.758     155.175     950.910
  O      139.748     156.129     950.569
  C      137.798     154.850     949.765
  O      138.502     154.732     948.517
  C      137.232     153.473     950.216
  N      135.886     153.579     950.772
  C      134.849     153.112     949.937
  O      135.109     152.645     948.840
  N      133.562     153.225     950.394
  C      133.329     153.722     951.564
  N      132.013     153.810     951.961
  C      134.382     154.195     952.477
  C      135.633     154.091     952.017
  O      138.635     154.686     955.922
  O      140.289     152.713     955.496
  H      139.138     153.993     948.633
  H      138.377     155.577     955.646
  H      134.133     154.590     953.463
  H      136.461     154.427     952.618
  H      137.214     152.784     949.364
  H      137.045     155.634     949.623
  H      138.156     155.505     951.755
  H      139.998     153.468     950.359
  H      131.316     153.483     951.297
  H      140.465     152.668     952.654
  H      131.708     154.202     952.833
  H      140.996     154.353     952.447
  P      140.341     157.114     951.685
  C      138.378     158.788     951.531
  O      139.781     158.577     951.334
  O      141.832     157.037     951.879
  O      139.495     156.744     953.002
  H      138.522     156.859     952.919
  H      138.128     159.794     951.265
  H      138.133     158.620     952.559
  H      137.825     158.108     950.917

 6  7  8  9  10  11  12  13  14  15  16  26  30  31  32  33  35 0
 6-311+G(2d,p)
 ****
 37  38 0
 6-311+G(2d,p)
 ****
 1  2  3  4  5  17  18  19  20  21  22  23  24  25 0
 3-21G
 ****
 27  28  29  34  36  39  40  41  42  43  44  45  46 0
 3-21G
 ****


