%nproc=1
%NoSave
%Mem=1900MB
#P OB98/GEN NMR

erre ene a

0 1
  C     -120.789     -78.245    -833.832
  O     -121.989     -77.803    -834.440
  H     -119.990     -77.547    -834.091
  H     -120.529     -79.239    -834.199
  H     -120.903     -78.267    -832.746
  P     -123.307     -78.687    -834.165
  C     -124.145     -77.655    -836.403
  O     -124.076     -78.805    -835.564
  C     -124.791     -78.027    -837.732
  O     -123.973     -79.017    -838.413
  C     -126.170     -78.659    -837.598
  O     -127.182     -77.704    -837.356
  C     -126.304     -79.361    -838.939
  O     -126.752     -78.465    -839.956
  C     -124.862     -79.813    -839.231
  N     -126.578     -84.526    -840.188
  C     -126.917     -83.321    -840.700
  N     -126.399     -82.115    -840.393
  C     -125.415     -82.230    -839.492
  C     -124.961     -83.390    -838.887
  C     -125.578     -84.595    -839.270
  N     -125.252     -85.812    -838.746
  N     -123.962     -83.103    -837.980
  C     -123.809     -81.799    -838.036
  N     -124.663     -81.226    -838.939
  O     -124.229     -77.695    -833.304
  O     -123.064     -79.979    -833.456
  H     -127.576     -78.055    -839.621
  H     -124.157     -77.925    -832.360
  H     -127.717     -83.326    -841.426
  H     -123.107     -81.213    -837.442
  H     -124.580     -79.650    -840.275
  H     -127.017     -80.187    -838.877
  H     -126.154     -79.421    -836.797
  H     -124.836     -77.128    -838.371
  H     -123.133     -77.277    -836.584
  H     -124.722     -76.878    -835.892
  H     -125.788     -86.622    -839.018
  H     -124.596     -85.851    -837.976
  P     -128.559     -78.224    -836.709
  C     -129.711     -75.882    -836.719
  O     -129.716     -77.220    -837.188
  O     -128.398     -77.899    -835.144
  O     -128.849     -79.665    -836.953
  H     -128.835     -78.595    -834.616
  H     -130.545     -75.356    -837.133
  H     -128.803     -75.402    -837.018
  H     -129.781     -75.878    -835.651

 6  7  8  9  10  11  12  13  14  15  25  28  32  33  34  35 0
 6-311+G(2d,p)
 ****
 36  37  40 0
 6-311+G(2d,p)
 ****
 1  2  3  4  5  16  17  18  19  20  21  22  23  24 0
 3-21G
 ****
 26  27  29  30  31  38  39 41  42  43  44  45  46  47  48 0
 3-21G
 ****


