%nproc=1
%NoSave
%Mem=1900MB
#P OB98/GEN NMR

erre ene a

0 1
  C     -245.416      37.914    -896.960
  O     -244.723      36.659    -896.990
  P     -245.173      35.535    -898.060
  C     -245.747      33.866    -896.180
  O     -246.225      34.563    -897.350
  C     -246.828      32.956    -895.660
  O     -247.939      33.696    -895.140
  C     -247.427      32.005    -896.710
  O     -246.537      30.937    -896.980
  C     -248.717      31.590    -896.040
  O     -248.499      30.536    -895.090
  C     -249.134      32.897    -895.300
  N     -253.647      32.627    -897.640
  C     -252.818      31.664    -897.170
  N     -251.626      31.820    -896.590
  C     -251.270      33.123    -896.550
  C     -251.993      34.205    -897.030
  C     -253.256      33.925    -897.590
  N     -254.124      34.893    -898.020
  N     -251.298      35.368    -896.850
  C     -250.152      35.004    -896.270
  N     -250.144      33.655    -896.000
  O     -244.049      34.856    -898.770
  O     -246.080      36.356    -899.110
  H     -249.362      30.411    -894.600
  H     -245.670      36.307    -900.000
  H     -253.204      30.652    -897.230
  H     -249.347      35.672    -896.010
  H     -249.509      32.684    -894.280
  H     -249.479      31.239    -896.740
  H     -247.649      32.564    -897.620
  H     -246.405      32.358    -894.820
  H     -245.468      34.612    -895.440
  H     -255.055      34.588    -898.240
  H     -253.993      35.861    -897.700
  H     -244.850      33.303    -896.470
  P     -247.002      29.748    -897.960
  C     -246.382      27.864    -896.330
  O     -247.412      28.516    -897.040
  O     -246.059      29.407    -899.090
  O     -248.427      30.273    -898.530
  H     -248.576      29.945    -899.450
  H     -245.822      27.218    -897.010
  H     -246.790      27.276    -895.520
  H     -245.680      28.611    -895.900
  H     -244.994      38.536    -896.199
  H     -246.451      37.745    -896.749
  H     -245.320      38.397    -897.910

 3  4  5  6  7  8  9  10  11  12  22  25  29  30  31  32 0
 6-311+G(2d,p)
 ****
 33  36  37 0
 6-311+G(2d,p)
 ****
 1  2  13  14  15  16  17  18  19  20  21  23  24  26 0
 3-21G
 ****
 27  28  34  35  38  39  40  41  42  43  44  45  46  47  48 0
 3-21G
 ****


