%nproc=1
%NoSave
%Mem=1900MB
#P OB98/GEN NMR

erre ene a

0 1
  C      401.329     211.661     266.613
  O      402.438     211.061     267.270
  P      403.346     210.053     266.406
  C      402.041     207.989     267.314
  O      402.478     208.729     266.179
  C      401.142     206.835     266.880
  O      399.962     207.343     266.225
  C      401.780     205.878     265.883
  O      402.707     205.014     266.519
  C      400.543     205.183     265.329
  O      400.087     204.175     266.252
  C      399.532     206.341     265.262
  N      398.477     205.487     260.323
  C      398.508     204.660     261.395
  N      398.818     204.956     262.669
  C      399.110     206.263     262.798
  C      399.142     207.219     261.796
  C      398.801     206.787     260.503
  N      398.774     207.634     259.415
  N      399.511     208.449     262.303
  C      399.692     208.241     263.592
  N      399.450     206.940     263.941
  O      404.464     209.589     267.452
  O      403.943     210.650     265.171
  H      399.275     203.784     265.874
  H      405.320     209.441     267.005
  H      398.247     203.626     261.197
  H      399.987     208.999     264.302
  H      398.519     206.028     265.548
  H      400.718     204.690     264.366
  H      402.285     206.434     265.081
  H      400.827     206.291     267.781
  H      401.474     208.648     267.979
  H      398.664     207.214     258.502
  H      399.157     208.564     259.524
  H      402.918     207.623     267.857
  P      404.186     204.937     265.899
  C      403.406     202.934     264.485
  O      403.960     204.237     264.463
  O      404.838     203.752     266.763
  O      404.932     206.225     265.885
  H      404.259     202.974     266.809
  H      403.261     202.604     263.456
  H      402.437     202.940     264.994
  H      404.085     202.242     264.985
  H      400.814     212.304     267.297
  H      400.662     210.898     266.270
  H      401.676     212.233     265.778

 3  4  5  6  7  8  9  10  11  12  22  25  29  30  31  32 0
 6-311+G(2d,p)
 ****
 33  36  37 0
 6-311+G(2d,p)
 ****
 1  2  13  14  15  16  17  18  19  20  21  23  24  26 0
 3-21G
 ****
 27  28  34  35  38  39  40  41  42  43  44  45  46  47  48 0
 3-21G
 ****


