%nproc=1
%NoSave
%Mem=1900MB
#P OB98/GEN NMR

erre ene a

0 1
  C      365.231    -949.509     302.909
  O      365.313    -949.200     304.284
  H      364.704    -948.699     302.396
  H      364.675    -950.437     302.764
  H      366.231    -949.601     302.479
  P      366.095    -950.249     305.213
  C      368.353    -949.123     305.848
  O      367.658    -949.994     304.960
  C      369.799    -949.586     306.003
  O      369.813    -950.982     306.390
  C      370.620    -949.513     304.722
  O      371.076    -948.195     304.462
  C      371.749    -950.490     305.035
  O      372.784    -949.872     305.806
  C      371.034    -951.558     305.875
  N      372.722    -956.200     304.610
  C      373.209    -955.262     305.452
  N      372.683    -954.053     305.750
  C      371.539    -953.856     305.078
  C      370.924    -954.717     304.177
  C      371.567    -955.944     303.952
  N      371.097    -956.883     303.061
  N      369.785    -954.140     303.654
  C      369.700    -952.959     304.237
  N      370.734    -952.749     305.104
  O      365.816    -951.648     304.486
  O      365.674    -950.267     306.646
  H      372.398    -949.659     306.678
  H      365.048    -952.083     304.900
  H      374.135    -955.516     305.952
  H      368.924    -952.226     304.050
  H      371.635    -951.872     306.738
  H      372.206    -950.874     304.120
  H      370.040    -949.895     303.876
  H      370.268    -949.005     306.803
  H      367.862    -949.139     306.826
  H      368.316    -948.105     305.446
  H      371.620    -957.731     302.929
  H      370.293    -956.656     302.488
  P      371.193    -947.715     302.940
  C      369.791    -945.541     302.606
  O      369.820    -946.962     302.558
  O      371.114    -949.080     302.112
  O      372.428    -946.940     302.622
  H      372.010    -949.367     301.839
  H      368.818    -945.195     302.328
  H      370.518    -945.146     301.927
  H      370.016    -945.213     303.599

 6  7  8  9  10  11  12  13  14  15  25  28  32  33  34  35 0
 6-311+G(2d,p)
 ****
 36  37  40 0
 6-311+G(2d,p)
 ****
 1  2  3  4  5  16  17  18  19  20  21  22  23  24 0
 3-21G
 ****
 26  27  29  30  31  38  39 41  42  43  44  45  46  47  48 0
 3-21G
 ****


