%nproc=1
%NoSave
%Mem=1900MB
#P OB98/GEN NMR

erre ene a

0 1
  C      284.513    -234.386    -758.921
  O      283.204    -234.982    -758.757
  P      282.453    -235.592    -760.045
  C      283.486    -237.993    -759.895
  O      283.339    -236.797    -760.644
  C      282.492    -239.041    -760.393
  O      282.816    -239.450    -761.737
  C      282.475    -240.329    -759.580
  O      281.768    -240.181    -758.354
  C      281.794    -241.291    -760.554
  O      280.355    -241.162    -760.489
  C      282.325    -240.800    -761.919
  N      283.361    -241.677    -762.459
  C      282.939    -242.878    -763.024
  O      281.757    -243.234    -763.023
  N      283.911    -243.675    -763.542
  C      285.262    -243.424    -763.514
  O      286.091    -244.201    -763.978
  C      285.660    -242.197    -762.833
  C      284.709    -241.390    -762.336
  O      282.684    -234.442    -761.133
  O      280.996    -235.872    -759.870
  H      280.002    -241.757    -761.183
  H      281.950    -234.454    -761.782
  H      283.625    -244.544    -763.991
  H      286.728    -241.963    -762.760
  H      285.000    -240.483    -761.832
  H      281.513    -240.740    -762.645
  H      282.017    -242.338    -760.332
  H      283.507    -240.668    -759.407
  H      281.482    -238.593    -760.410
  H      283.289    -237.777    -758.834
  H      284.518    -238.361    -759.989
  P      282.280    -241.067    -757.116
  C      284.554    -239.831    -756.752
  O      283.867    -240.989    -757.176
  O      281.906    -242.537    -757.630
  O      281.640    -240.683    -755.820
  H      282.002    -242.629    -758.597
  H      284.016    -239.310    -755.940
  H      284.651    -239.135    -757.606
  H      285.568    -240.091    -756.404
  H      284.865    -234.033    -757.974
  H      284.448    -233.566    -759.605
  H      285.193    -235.118    -759.304

 3  4  5  6  7  8  9  10  11  12  13  23  28  29  30  31  32 0
 6-311+G(2d,p)
 ****
 33  34 0
 6-311+G(2d,p)
 ****
 1  2  14  15  16  17  18  19  20  21  22  24  25  26 0
 3-21G
 ****
 27  35  36  37  38  39  40  41  42  43  44  45 0
 3-21G
 ****


