%nproc=1
%NoSave
%Mem=1900MB
#P OB98/GEN NMR

erre ene a

0 1
  C      106.281    -103.803     127.173
  O      106.645    -102.500     127.582
  H      105.349    -104.081     127.672
  H      107.061    -104.507     127.473
  H      106.133    -103.848     126.091
  P      107.741    -101.730     126.699
  C      110.335    -101.734     126.586
  O      109.178    -102.126     127.307
  C      111.600    -102.224     127.295
  O      111.799    -101.420     128.500
  C      111.546    -103.700     127.723
  O      112.849    -104.277     127.575
  C      111.239    -103.609     129.210
  O      111.651    -104.772     129.922
  C      112.013    -102.347     129.582
  N      112.660    -102.786     134.542
  C      113.378    -103.319     133.493
  N      114.395    -104.151     133.805
  N      113.120    -103.066     132.235
  C      112.090    -102.201     132.062
  C      111.296    -101.608     133.012
  C      111.579    -101.912     134.403
  O      110.965    -101.486     135.373
  N      110.316    -100.847     132.427
  C      110.504    -100.996     131.126
  N      111.568    -101.811     130.855
  O      107.546    -100.206     127.152
  O      107.605    -101.897     125.223
  H      111.095    -105.523     129.630
  H      106.949     -99.749     126.528
  H      112.886    -103.027     135.490
  H      109.894    -100.559     130.351
  H      113.093    -102.528     129.670
  H      110.162    -103.471     129.362
  H      114.674    -104.372     134.748
  H      110.810    -104.299     127.174
  H      114.960    -104.521     133.047
  H      112.461    -102.041     126.643
  H      110.366    -100.640     126.520
  H      110.285    -102.144     125.571
  P      113.299    -104.753     126.109
  C      112.894    -106.829     124.590
  O      112.817    -106.267     125.891
  O      114.889    -104.890     126.246
  O      112.924    -103.800     125.018
  H      115.317    -104.646     125.405
  H      112.537    -107.837     124.615
  H      113.911    -106.819     124.257
  H      112.292    -106.255     123.917

 6  7  8  9  10  11  12  13  14  15  26  29  33  34 0
 6-311+G(2d,p)
 ****
 36  38  39  40  41 0
 6-311+G(2d,p)
 ****
 1  2  3  4  5  16  17  18  19  20  21  22  23  24  25 0
 3-21G
 ****
 27  28  30  31  32  35  37  42  43  44  45  46  47 0
 3-21G
 ****
 48  49 0
 3-21G
 ****


