%nproc=1
%NoSave
%Mem=1900MB
#P OB98/GEN NMR

erre ene a

0 1
  C     -170.721     232.231     103.492
  O     -172.044     232.328     103.017
  H     -170.187     231.495     102.883
  H     -170.711     231.889     104.529
  H     -170.209     233.192     103.407
  P     -173.074     233.311     103.759
  C     -173.810     231.450     105.366
  O     -173.209     232.734     105.256
  C     -173.394     230.757     106.664
  O     -173.729     231.604     107.796
  C     -174.076     229.399     106.885
  O     -173.103     228.427     107.278
  C     -175.029     229.662     108.041
  O     -175.357     228.484     108.773
  C     -174.254     230.735     108.813
  N     -175.100     231.441     109.767
  C     -174.727     231.344     111.111
  O     -173.730     230.696     111.435
  N     -175.518     231.935     112.061
  C     -176.613     232.529     111.704
  N     -177.369     233.070     112.700
  C     -177.061     232.630     110.301
  C     -176.261     232.073     109.391
  O     -174.367     233.514     103.042
  O     -172.259     234.670     103.978
  H     -174.537     227.959     108.900
  H     -172.898     235.411     104.093
  H     -177.985     233.132     110.058
  H     -176.507     232.096     108.335
  H     -173.408     230.293     109.356
  H     -175.963     230.087     107.650
  H     -174.605     229.036     106.005
  H     -172.301     230.658     106.669
  H     -177.028     232.971     113.650
  H     -173.513     230.849     104.499
  H     -178.250     233.534     112.547
  H     -174.897     231.577     105.363
  P     -172.642     227.388     106.146
  C     -174.780     225.978     106.569
  O     -173.948     226.623     105.615
  O     -171.847     226.271     106.972
  O     -171.787     228.001     105.087
  H     -170.895     226.326     106.770
  H     -175.605     225.515     106.068
  H     -175.147     226.700     107.268
  H     -174.215     225.233     107.089

 6  7  8  9  10  11  12  13  14  15  16  26  30  31  32  33  35 0
 6-311+G(2d,p)
 ****
 37  38 0
 6-311+G(2d,p)
 ****
 1  2  3  4  5  17  18  19  20  21  22  23  24  25 0
 3-21G
 ****
 27  28  29  34  36  39  40  41  42  43  44  45  46 0
 3-21G
 ****


