%nproc=1
%NoSave
%Mem=1900MB
#P OB98/GEN NMR

erre ene a

0 1
  C      191.485    -894.350    -820.382
  O      192.894    -894.290    -820.469
  H      191.159    -895.390    -820.617
  H      191.010    -893.670    -821.082
  H      191.171    -894.120    -819.354
  P      193.604    -892.870    -820.274
  C      194.843    -892.780    -818.008
  O      193.623    -892.580    -818.702
  C      194.769    -894.040    -817.133
  O      194.503    -895.200    -817.977
  C      196.081    -894.330    -816.337
  O      195.707    -895.010    -815.153
  C      196.794    -895.290    -817.300
  O      197.853    -895.950    -816.689
  C      195.590    -896.150    -817.772
  N      195.911    -896.890    -818.990
  C      196.667    -898.060    -818.807
  O      197.017    -898.400    -817.667
  N      196.988    -898.820    -819.904
  C      196.658    -898.380    -821.102
  N      197.033    -899.160    -822.143
  C      195.915    -897.130    -821.350
  C      195.587    -896.430    -820.236
  O      193.081    -891.760    -821.128
  O      195.155    -893.170    -820.609
  H      197.535    -896.520    -815.965
  H      195.391    -892.820    -821.488
  H      195.692    -896.820    -822.342
  H      195.041    -895.500    -820.324
  H      195.294    -896.840    -816.999
  H      197.228    -894.740    -818.167
  H      196.658    -893.430    -816.121
  H      193.925    -893.960    -816.454
  H      197.554    -900.000    -821.937
  H      195.013    -891.890    -817.370
  H      196.849    -898.910    -823.106
  H      195.671    -892.890    -818.720
  P      195.719    -894.280    -813.718
  C      193.419    -894.390    -812.509
  O      194.252    -893.670    -813.444
  O      196.798    -893.290    -813.528
  O      195.847    -895.470    -812.644
  H      196.292    -895.150    -811.859
  H      192.478    -893.891    -812.412
  H      193.903    -894.427    -811.555
  H      193.259    -895.386    -812.867

 6  7  8  9  10  11  12  13  14  15  16  26  30  31  32  33  35 0
 6-311+G(2d,p)
 ****
 37  38 0
 6-311+G(2d,p)
 ****
 1  2  3  4  5  17  18  19  20  21  22  23  24  25 0
 3-21G
 ****
 27  28  29  34  36  39  40  41  42  43  44  45  46 0
 3-21G
 ****


