%nproc=1
%NoSave
%Mem=1900MB
#P OB98/GEN NMR

erre ene a

0 1
  C     -582.883     462.945    -401.491
  O     -581.513     463.285    -401.431
  H     -583.216     462.652    -400.487
  H     -583.043     462.085    -402.151
  H     -583.474     463.794    -401.828
  P     -580.744     463.594    -402.809
  C     -578.967     465.140    -401.743
  O     -579.226     463.910    -402.401
  C     -577.912     464.950    -400.653
  O     -578.471     464.155    -399.554
  C     -576.679     464.173    -401.118
  O     -575.846     465.011    -401.904
  C     -576.096     463.713    -399.797
  O     -575.370     464.752    -399.152
  C     -577.385     463.364    -399.002
  N     -577.707     461.929    -399.043
  C     -577.753     461.275    -397.821
  O     -577.537     461.909    -396.766
  N     -578.016     459.935    -397.797
  C     -578.251     459.297    -398.912
  N     -578.508     457.969    -398.813
  C     -578.214     459.940    -400.238
  C     -577.936     461.257    -400.234
  O     -581.367     464.619    -403.712
  O     -580.648     462.151    -403.510
  H     -575.130     464.404    -398.268
  H     -581.430     461.988    -404.074
  H     -578.402     459.390    -401.138
  H     -577.903     461.823    -401.169
  H     -577.282     463.672    -397.950
  H     -575.429     462.869    -399.933
  H     -576.984     463.292    -401.697
  H     -577.632     465.933    -400.250
  H     -578.502     457.555    -397.896
  H     -579.911     465.488    -401.311
  H     -578.786     457.380    -399.607
  H     -578.611     465.895    -402.467
  P     -574.678     464.384    -402.815
  C     -575.101     466.207    -404.596
  O     -574.142     465.618    -403.713
  O     -575.049     463.152    -403.566
  O     -573.474     464.166    -401.768
  H     -573.662     463.391    -401.199
  H     -574.643     467.008    -405.137
  H     -575.924     466.586    -404.027
  H     -575.454     465.467    -405.284

 6  7  8  9  10  11  12  13  14  15  16  26  30  31  32  33  35 0
 6-311+G(2d,p)
 ****
 37  38 0
 6-311+G(2d,p)
 ****
 1  2  3  4  5  17  18  19  20  21  22  23  24  25 0
 3-21G
 ****
 27  28  29  34  36  39  40  41  42  43  44  45  46 0
 3-21G
 ****


