%nproc=1
%NoSave
%Mem=1900MB
#P OB98/GEN NMR

erre ene a

0 1
  C     -134.440    -893.970     436.153
  O     -134.210    -893.410     437.448
  H     -134.810    -893.150     435.506
  H     -135.192    -894.750     436.215
  H     -133.511    -894.350     435.726
  P     -133.567    -894.340     438.582
  C     -135.452    -894.380     440.344
  O     -134.797    -895.110     439.314
  C     -136.690    -895.130     440.827
  O     -136.274    -896.460     441.281
  C     -137.437    -894.440     441.961
  O     -138.837    -894.640     441.790
  C     -136.990    -895.190     443.211
  O     -137.936    -895.160     444.266
  C     -136.778    -896.620     442.637
  N     -136.276    -899.470     446.781
  C     -137.412    -898.920     446.186
  N     -138.584    -899.140     446.833
  N     -137.373    -898.220     445.098
  C     -136.158    -898.080     444.555
  C     -134.935    -898.580     445.021
  C     -134.980    -899.360     446.249
  O     -134.032    -899.880     446.847
  N     -133.901    -898.230     444.220
  C     -134.456    -897.490     443.279
  N     -135.806    -897.370     443.433
  O     -132.619    -893.670     439.513
  O     -132.859    -895.520     437.745
  H     -138.784    -895.470     443.894
  H     -131.887    -895.360     437.686
  H     -136.340    -900.000     447.614
  H     -133.922    -897.020     442.450
  H     -137.686    -897.200     442.620
  H     -136.022    -894.780     443.578
  H     -138.666    -899.690     447.662
  H     -137.187    -893.360     442.037
  H     -139.443    -898.750     446.398
  H     -137.347    -895.290     439.949
  H     -135.745    -893.410     439.937
  H     -134.738    -894.220     441.184
  P     -139.683    -893.470     441.036
  C     -139.191    -891.760     442.892
  O     -139.102    -892.050     441.483
  O     -141.172    -893.640     441.103
  O     -139.174    -893.620     439.500
  H     -139.892    -893.350     438.904
  H     -138.777    -890.792     443.084
  H     -138.645    -892.497     443.443
  H     -140.217    -891.776     443.195

 6  7  8  9  10  11  12  13  14  15  26  29  33  34 0
 6-311+G(2d,p)
 ****
 36  38  39  40  41 0
 6-311+G(2d,p)
 ****
 1  2  3  4  5  16  17  18  19  20  21  22  23  24  25 0
 3-21G
 ****
 27  28  30  31  32  35  37  42  43  44  45  46  47 0
 3-21G
 ****
 48  49 0
 3-21G
 ****


