%nproc=1
%NoSave
%Mem=1900MB
#P OB98/GEN NMR

erre ene a

0 1
  C       13.758    -152.968     -20.438
  O       14.466    -152.337     -19.362
  P       13.809    -151.241     -18.392
  C       13.856    -152.651     -16.221
  O       14.351    -151.503     -16.903
  C       14.998    -153.403     -15.531
  O       15.828    -154.067     -16.514
  C       15.974    -152.534     -14.747
  O       15.418    -152.058     -13.534
  C       17.150    -153.491     -14.569
  O       16.956    -154.349     -13.436
  C       17.104    -154.317     -15.869
  N       18.207    -154.025     -16.772
  C       19.478    -154.431     -16.359
  O       19.640    -154.936     -15.247
  N       20.533    -154.239     -17.216
  C       20.356    -153.598     -18.333
  N       21.435    -153.453     -19.143
  C       19.055    -153.032     -18.737
  C       18.033    -153.281     -17.918
  O       12.319    -151.166     -18.482
  O       14.484    -149.848     -18.807
  H       13.880    -149.114     -18.591
  H       16.992    -153.786     -12.642
  H       18.962    -152.468     -19.649
  H       17.041    -152.911     -18.154
  H       17.104    -155.390     -15.637
  H       18.092    -152.958     -14.412
  H       16.281    -151.686     -15.371
  H       14.552    -154.167     -14.872
  H       22.314    -153.867     -18.839
  H       13.390    -153.316     -16.953
  H       21.403    -152.990     -20.045
  H       13.098    -152.338     -15.494
  P       16.231    -150.906     -12.770
  C       14.298    -149.184     -12.567
  O       15.187    -150.068     -11.894
  O       16.653    -149.897     -13.936
  O       17.428    -151.394     -12.010
  H       17.556    -149.568     -13.773
  H       13.394    -149.080     -11.968
  H       14.034    -149.552     -13.561
  H       14.776    -148.200     -12.658
  H       14.407    -153.658     -20.936
  H       13.428    -152.224     -21.132
  H       12.911    -153.493     -20.048

 3  4  5  6  7  8  9  10  11  12  13  24  27  28  29  30  32 0
 6-311+G(2d,p)
 ****
 34  35 0
 6-311+G(2d,p)
 ****
 1  2  14  15  16  17  18  19  20  21  22  23  25  26 0
 3-21G
 ****
 31  33  36  37  38  39  40  41  42  43  44  45  46 0
 3-21G
 ****


