%nproc=1
%NoSave
%Mem=1900MB
#P OB98/GEN NMR

erre ene a

0 1
  C     -470.757    -899.237    -251.107
  O     -471.416    -898.377    -250.177
  P     -472.722    -897.577    -250.639
  C     -473.925    -897.857    -248.357
  O     -473.456    -896.947    -249.351
  C     -474.314    -897.097    -247.091
  O     -473.150    -896.537    -246.423
  C     -475.210    -895.887    -247.366
  O     -476.524    -896.157    -247.787
  C     -475.041    -895.057    -246.103
  O     -475.897    -895.517    -245.047
  C     -473.560    -895.317    -245.742
  N     -472.690    -894.207    -246.086
  C     -472.113    -893.537    -245.011
  O     -472.346    -893.817    -243.843
  N     -471.281    -892.487    -245.343
  C     -471.004    -892.047    -246.589
  O     -470.268    -891.097    -246.824
  C     -471.639    -892.777    -247.698
  C     -472.442    -893.817    -247.393
  O     -473.621    -898.287    -251.578
  O     -472.099    -896.267    -251.332
  H     -475.613    -896.447    -244.829
  H     -472.623    -896.077    -252.139
  H     -470.846    -891.997    -244.563
  H     -471.455    -892.457    -248.701
  H     -472.931    -894.367    -248.188
  H     -473.449    -895.527    -244.673
  H     -475.270    -893.997    -246.268
  H     -474.754    -895.307    -248.181
  H     -474.768    -897.777    -246.386
  H     -473.161    -898.597    -248.133
  H     -474.784    -898.407    -248.773
  P     -477.219    -895.427    -249.029
  C     -477.663    -897.437    -250.597
  O     -478.209    -896.467    -249.750
  O     -476.360    -894.597    -249.910
  O     -478.260    -894.447    -248.274
  H     -478.353    -893.637    -248.806
  H     -478.477    -898.047    -251.003
  H     -476.982    -898.087    -250.057
  H     -477.139    -896.947    -251.436
  H     -469.909    -899.689    -250.636
  H     -470.433    -898.667    -251.952
  H     -471.435    -900.000    -251.430

 3  4  5  6  7  8  9  10  11  12  13  23  28  29  30  31  32 0
 6-311+G(2d,p)
 ****
 33  34 0
 6-311+G(2d,p)
 ****
 1  2  14  15  16  17  18  19  20  21  22  24  25  26  27 0
 3-21G
 ****
 35  36  37  38  39  40  41  42  43  44  45 0
 3-21G
 ****


