%nproc=1
%NoSave
%Mem=1900MB
#P OB98/GEN NMR

erre ene a

0 1
  C       33.006     -79.870     427.043
  O       32.180     -80.979     426.757
  H       33.715     -80.130     427.835
  H       33.566     -79.603     426.141
  H       32.402     -79.008     427.352
  P       31.142     -81.426     427.898
  C       29.018     -80.411     426.788
  O       29.721     -81.587     427.157
  C       27.864     -80.754     425.841
  O       28.420     -81.201     424.574
  C       26.950     -81.869     426.370
  O       25.598     -81.558     426.023
  C       27.411     -83.095     425.603
  O       26.389     -84.081     425.499
  C       27.832     -82.484     424.266
  N       28.740     -87.232     422.611
  C       27.660     -86.668     423.191
  N       27.493     -85.390     423.598
  C       28.586     -84.654     423.303
  C       29.766     -85.089     422.715
  C       29.827     -86.450     422.365
  N       30.939     -87.037     421.809
  N       30.667     -84.044     422.613
  C       30.041     -83.003     423.129
  N       28.785     -83.327     423.567
  O       30.968     -80.074     428.745
  O       31.565     -82.572     428.750
  H       26.796     -84.914     425.181
  H       31.730     -79.972     429.349
  H       26.819     -87.333     423.362
  H       30.456     -82.008     423.220
  H       26.979     -82.324     423.590
  H       28.275     -83.548     426.111
  H       27.025     -82.001     427.446
  H       27.298     -79.836     425.629
  H       29.709     -79.720     426.290
  H       30.915     -88.036     421.645
  H       31.775     -86.491     421.675
  H       28.622     -79.928     427.691
  P       24.460     -81.998     427.067
  C       24.594     -79.834     428.497
  O       23.787     -80.673     427.682
  O       25.304     -82.599     428.294
  O       23.496     -83.001     426.521
  H       24.943     -83.470     428.542
  H       24.015     -78.998     428.832
  H       25.431     -79.484     427.930
  H       24.943     -80.388     429.343

 6  7  8  9  10  11  12  13  14  15  25  28  32  33  34  35 0
 6-311+G(2d,p)
 ****
 36  39  40 0
 6-311+G(2d,p)
 ****
 1  2  3  4  5  16  17  18  19  20  21  22  23  24 0
 3-21G
 ****
 26  27  29  30  31  37  38  41  42  43  44  45  46  47 0
 3-21G
 ****
 48 0
 3-21G
 ****


