%nproc=1
%NoSave
%Mem=1900MB
#P OB98/GEN NMR

erre ene a

0 1
  C       -5.247      36.784     259.936
  O       -5.941      36.227     258.833
  P       -6.772      37.225     257.890
  C       -9.006      35.920     258.151
  O       -8.301      37.134     258.368
  C      -10.478      36.091     258.531
  O      -10.699      35.720     259.905
  C      -10.988      37.522     258.415
  O      -11.329      37.869     257.080
  C      -12.238      37.457     259.279
  O      -13.320      36.864     258.537
  C      -11.792      36.521     260.415
  N      -13.291      39.553     264.177
  C      -14.044      38.851     263.256
  N      -15.382      39.026     263.308
  N      -13.531      38.041     262.364
  C      -12.178      37.970     262.420
  C      -11.327      38.615     263.290
  C      -11.907      39.514     264.264
  O      -11.292      40.203     265.068
  N      -10.020      38.281     263.047
  C      -10.077      37.438     262.037
  N      -11.361      37.249     261.594
  O       -6.785      36.476     256.475
  O       -6.204      38.601     257.792
  H      -14.062      36.760     259.167
  H       -7.020      37.102     255.769
  H      -13.731      40.169     264.843
  H       -9.218      36.953     261.587
  H      -12.587      35.834     260.715
  H      -12.579      38.443     259.609
  H      -15.832      39.683     263.929
  H      -10.280      38.234     258.850
  H      -15.951      38.574     262.604
  H      -11.067      35.417     257.897
  H       -8.561      35.133     258.758
  H       -8.920      35.639     257.097
  P      -12.120      39.248     256.875
  C      -14.113      37.940     255.838
  O      -13.671      38.847     256.829
  O      -11.781      39.635     255.356
  O      -11.745      40.330     257.832
  H      -11.842      40.599     255.229
  H      -15.108      37.580     256.113
  H      -13.438      37.083     255.757
  H      -14.181      38.447     254.873
  H       -4.742      36.006     260.470
  H       -5.943      37.269     260.587
  H       -4.531      37.497     259.584

 3  4  5  6  7  8  9  10  11  12  23  26  30  31 0
 6-311+G(2d,p)
 ****
 33  35  36  37  38 0
 6-311+G(2d,p)
 ****
 1  2  13  14  15  16  17  18  19  20  21  22  24  25 0
 3-21G
 ****
 27  28  29  32  34  39  40  41  42  43  44  45  46  47  48  49 0
 3-21G
 ****


