%nproc=1
%NoSave
%Mem=1900MB
#P OB98/GEN NMR

erre ene a

0 1
  C      -46.396     -35.122     -46.831
  O      -45.983     -34.308     -47.905
  P      -46.966     -33.767     -49.037
  C      -49.128     -32.297     -48.998
  O      -48.320     -33.265     -48.340
  C      -50.620     -32.616     -48.826
  O      -50.946     -33.755     -49.661
  C      -50.950     -33.013     -47.377
  O      -52.164     -32.462     -46.886
  C      -50.835     -34.532     -47.408
  O      -51.513     -35.175     -46.341
  C      -51.340     -34.853     -48.811
  N      -51.926     -39.887     -49.167
  C      -52.806     -38.942     -48.679
  N      -53.897     -39.421     -48.042
  N      -52.608     -37.653     -48.776
  C      -51.420     -37.328     -49.336
  C      -50.470     -38.175     -49.858
  C      -50.716     -39.595     -49.774
  O      -49.911     -40.471     -50.092
  N      -49.359     -37.494     -50.283
  C      -49.620     -36.236     -49.988
  N      -50.846     -36.090     -49.380
  O      -47.077     -34.592     -50.277
  O      -46.259     -32.371     -49.441
  H      -51.243     -34.737     -45.512
  H      -46.412     -32.239     -50.398
  H      -52.096     -40.871     -48.991
  H      -48.951     -35.402     -50.161
  H      -52.430     -34.923     -48.837
  H      -49.773     -34.784     -47.308
  H      -54.001     -40.402     -47.824
  H      -50.196     -32.615     -46.690
  H      -54.419     -38.766     -47.465
  H      -51.213     -31.764     -49.174
  H      -48.853     -32.336     -50.058
  H      -48.902     -31.294     -48.630
  P      -52.519     -31.980     -45.405
  C      -51.862     -30.049     -43.850
  O      -51.516     -30.801     -44.999
  O      -52.059     -33.181     -44.455
  O      -53.962     -31.668     -45.180
  H      -52.710     -33.298     -43.738
  H      -51.270     -29.130     -43.842
  H      -51.634     -30.626     -42.951
  H      -52.925     -29.788     -43.862
  H      -45.554     -35.350     -46.212
  H      -46.815     -36.030     -47.212
  H      -47.133     -34.604     -46.254

 3  4  5  6  7  8  9  10  11  12  23  26  30  31 0
 6-311+G(2d,p)
 ****
 33  35  36  37  38 0
 6-311+G(2d,p)
 ****
 1  2  13  14  15  16  17  18  19  20  21  22  24  25 0
 3-21G
 ****
 27  28  29  32  34  39  40  41  42  43  44  45  46  47  48  49 0
 3-21G
 ****


