%nproc=1
%NoSave
%Mem=1900MB
#P OB98/GEN NMR

erre ene a

0 1
  C      194.387    -379.046    -120.912
  O      194.636    -377.763    -120.379
  H      195.066    -379.248    -121.745
  H      194.555    -379.792    -120.132
  H      193.349    -379.117    -121.255
  P      194.437    -376.511    -121.367
  C      195.565    -375.755    -123.585
  O      195.602    -376.633    -122.464
  C      196.969    -375.242    -123.879
  O      197.471    -374.480    -122.755
  C      198.001    -376.342    -124.126
  O      197.946    -376.841    -125.449
  C      199.287    -375.569    -123.878
  O      199.589    -374.749    -125.021
  C      198.905    -374.696    -122.680
  N      202.535    -375.267    -119.116
  C      202.532    -374.623    -120.306
  N      201.525    -374.520    -121.196
  C      200.434    -375.177    -120.761
  C      200.295    -375.886    -119.581
  C      201.413    -375.913    -118.728
  N      201.429    -376.582    -117.523
  N      199.037    -376.458    -119.495
  C      198.423    -376.064    -120.595
  N      199.226    -375.299    -121.398
  O      194.898    -375.256    -120.483
  O      193.065    -376.342    -121.927
  H      200.371    -374.216    -124.785
  H      194.522    -374.434    -120.848
  H      203.459    -374.123    -120.569
  H      197.401    -376.309    -120.851
  H      199.386    -373.710    -122.705
  H      200.148    -376.222    -123.717
  H      197.919    -377.147    -123.385
  H      196.910    -374.562    -124.742
  H      194.909    -374.911    -123.356
  H      202.327    -376.697    -117.079
  H      200.652    -377.189    -117.298
  H      195.164    -376.297    -124.450
  P      198.186    -378.419    -125.649
  C      200.197    -379.993    -125.159
  O      199.748    -378.660    -125.377
  O      198.047    -378.602    -127.231
  O      197.250    -379.294    -124.890
  H      197.762    -379.510    -127.453
  H      201.254    -379.991    -124.993
  H      199.972    -380.590    -126.018
  H      199.702    -380.400    -124.302

 6  7  8  9  10  11  12  13  14  15  25  28  32  33  34  35 0
 6-311+G(2d,p)
 ****
 36  39  40 0
 6-311+G(2d,p)
 ****
 1  2  3  4  5  16  17  18  19  20  21  22  23  24 0
 3-21G
 ****
 26  27  29  30  31  37  38  41  42  43  44  45  46  47 0
 3-21G
 ****
 48 0
 3-21G
 ****


