%nproc=1
%NoSave
%Mem=1900MB
#P OB98/GEN NMR

erre ene a

0 1
  C       65.361    -270.458     -52.677
  O       65.643    -270.812     -54.028
  P       66.597    -269.856     -54.889
  C       68.838    -271.255     -54.731
  O       67.798    -270.705     -55.509
  C       69.308    -272.573     -55.370
  O       68.251    -273.556     -55.323
  C       69.712    -272.421     -56.833
  O       71.065    -272.026     -56.972
  C       69.426    -273.804     -57.383
  O       70.474    -274.717     -57.010
  C       68.114    -274.157     -56.643
  N       66.837    -273.707     -57.237
  C       66.576    -273.947     -58.585
  O       67.351    -274.518     -59.347
  N       65.363    -273.512     -59.049
  C       64.337    -273.029     -58.293
  O       63.249    -272.711     -58.756
  C       64.607    -272.936     -56.855
  C       65.820    -273.259     -56.403
  O       67.305    -268.937     -53.790
  O       65.883    -269.043     -55.924
  H       70.216    -275.599     -57.329
  H       67.041    -268.006     -53.905
  H       65.187    -273.612     -60.037
  H       63.803    -272.603     -56.211
  H       66.031    -273.192     -55.337
  H       68.030    -275.242     -56.502
  H       69.400    -273.801     -58.470
  H       69.046    -271.715     -57.340
  H       70.154    -272.957     -54.788
  H       68.504    -271.437     -53.706
  H       69.669    -270.545     -54.674
  P       71.484    -271.009     -58.136
  C       70.640    -268.898     -56.950
  O       71.774    -269.611     -57.404
  O       70.568    -270.945     -59.312
  O       72.955    -271.495     -58.548
  H       72.920    -272.093     -59.330
  H       70.976    -268.057     -56.337
  H       69.999    -269.543     -56.344
  H       70.078    -268.512     -57.805
  H       64.715    -271.192     -52.243
  H       64.882    -269.502     -52.651
  H       66.275    -270.414     -52.122

 3  4  5  6  7  8  9  10  11  12  13  23  28  29  30  31  32 0
 6-311+G(2d,p)
 ****
 33  34 0
 6-311+G(2d,p)
 ****
 1  2  14  15  16  17  18  19  20  21  22  24  25  26  27 0
 3-21G
 ****
 35  36  37  38  39  40  41  42  43  44  45 0
 3-21G
 ****


