%nproc=1
%NoSave
%Mem=1900MB
#P OB98/GEN NMR

erre ene a

0 1
  C     -103.279    -404.659    -196.335
  O     -102.923    -403.272    -196.433
  P     -103.972    -402.187    -195.898
  C     -102.066    -400.462    -196.304
  O     -103.462    -400.727    -196.325
  C     -101.778    -399.060    -196.848
  O     -101.869    -399.015    -198.287
  C     -102.750    -397.999    -196.351
  O     -102.393    -397.531    -195.058
  C     -102.546    -396.902    -197.384
  O     -101.352    -396.156    -197.076
  C     -102.349    -397.707    -198.676
  N     -104.415    -397.345    -203.348
  C     -103.173    -397.080    -202.888
  N     -102.703    -397.183    -201.628
  C     -103.662    -397.626    -200.799
  C     -104.972    -397.937    -201.120
  C     -105.347    -397.781    -202.466
  N     -106.613    -398.054    -202.928
  N     -105.668    -398.348    -200.003
  C     -104.786    -398.304    -199.026
  N     -103.563    -397.863    -199.455
  O     -103.739    -402.208    -194.315
  O     -105.392    -402.493    -196.247
  H     -101.308    -396.081    -196.104
  H     -104.585    -402.050    -193.854
  H     -102.459    -396.739    -203.634
  H     -104.985    -398.578    -197.998
  H     -101.595    -397.259    -199.332
  H     -103.371    -396.187    -197.405
  H     -103.784    -398.365    -196.388
  H     -100.755    -398.786    -196.557
  H     -101.532    -401.210    -196.897
  H     -106.799    -397.944    -203.912
  H     -107.304    -398.402    -202.278
  H     -101.700    -400.566    -195.277
  P     -102.951    -398.351    -193.799
  C     -100.725    -398.200    -192.468
  O     -102.096    -397.856    -192.540
  O     -102.419    -399.835    -194.073
  O     -104.435    -398.310    -193.644
  H     -103.037    -400.489    -193.693
  H     -100.236    -397.548    -191.741
  H     -100.235    -398.075    -193.437
  H     -100.625    -399.239    -192.137
  H     -102.486    -405.259    -196.729
  H     -104.174    -404.838    -196.894
  H     -103.443    -404.913    -195.309

 3  4  5  6  7  8  9  10  11  12  22  25  29  30  31  32 0
 6-311+G(2d,p)
 ****
 33  36  37 0
 6-311+G(2d,p)
 ****
 1  2  13  14  15  16  17  18  19  20  21  23  24  26 0
 3-21G
 ****
 27  28  34  35  38  39  40  41  42  43  44  45  46  47  48 0
 3-21G
 ****


