%nproc=1
%NoSave
%Mem=1900MB
#P OB98/GEN NMR

erre ene a

0 1
  C     -265.529     425.851     267.050
  O     -266.458     426.001     265.973
  P     -267.511     427.209     266.090
  C     -269.493     427.792     267.679
  O     -268.584     426.800     267.217
  C     -270.783     427.146     268.193
  O     -271.589     426.662     267.102
  C     -270.562     425.933     269.092
  O     -270.230     426.319     270.422
  C     -271.937     425.279     269.043
  O     -272.816     425.926     269.987
  C     -272.396     425.563     267.606
  N     -274.195     421.017     266.251
  C     -274.639     421.898     267.222
  N     -275.738     421.516     267.916
  N     -274.064     423.036     267.489
  C     -272.996     423.301     266.701
  C     -272.454     422.512     265.710
  C     -273.082     421.232     265.442
  O     -272.706     420.406     264.614
  N     -271.366     423.116     265.118
  C     -271.269     424.280     265.733
  N     -272.228     424.434     266.711
  O     -268.345     427.092     264.730
  O     -266.884     428.554     266.248
  H     -273.085     426.774     269.585
  H     -268.709     427.965     264.479
  H     -274.670     420.146     266.094
  H     -270.537     425.044     265.508
  H     -273.440     425.889     267.562
  H     -271.911     424.220     269.305
  H     -276.273     420.685     267.708
  H     -269.813     425.259     268.659
  H     -276.100     422.161     268.605
  H     -271.355     427.916     268.734
  H     -269.733     428.487     266.871
  H     -269.008     428.380     268.468
  P     -268.751     425.965     270.937
  C     -267.502     423.744     271.428
  O     -268.726     424.372     271.106
  O     -268.752     426.520     272.439
  O     -267.654     426.561     270.113
  H     -267.850     426.777     272.704
  H     -266.958     424.305     272.195
  H     -266.883     423.661     270.527
  H     -267.709     422.738     271.806
  H     -264.887     425.018     266.854
  H     -266.064     425.683     267.961
  H     -264.941     426.741     267.141

 3  4  5  6  7  8  9  10  11  12  23  26  30  31  33  0
 6-311+G(2d,p)
 ****
 35  36  37  38 0
 6-311+G(2d,p)
 ****
 1  2  13  14  15  16  17  18  19  20  21  22  24  25  27  28  29 0
 3-21G
 ****
 32  34  39  40  41  42  43  44  45  46  47  48  49 0
 3-21G
 ****


