%nproc=1
%NoSave
%Mem=1900MB
#P OB98/GEN NMR

erre ene a

0 1
  C      -67.313     -22.326      78.048
  O      -68.019     -23.106      77.109
  H      -67.728     -22.515      79.041
  H      -67.439     -21.266      77.812
  H      -66.249     -22.575      78.058
  P      -67.353     -23.380      75.681
  C      -68.395     -24.578      73.646
  O      -68.075     -24.658      75.029
  C      -67.984     -25.845      72.896
  O      -66.552     -25.860      72.717
  C      -68.347     -27.123      73.658
  O      -69.661     -27.598      73.417
  C      -67.303     -28.107      73.139
  O      -67.755     -28.766      71.945
  C      -66.095     -27.215      72.835
  N      -61.688     -29.350      74.304
  C      -62.505     -29.692      73.242
  N      -62.111     -30.757      72.512
  N      -63.607     -29.054      72.949
  C      -63.921     -28.076      73.829
  C      -63.200     -27.661      74.926
  C      -61.944     -28.324      75.201
  O      -61.176     -28.049      76.117
  N      -63.853     -26.663      75.610
  C      -65.002     -26.541      74.976
  N      -65.055     -27.318      73.843
  O      -65.902     -23.955      76.051
  O      -67.234     -22.184      74.785
  H      -68.113     -28.086      71.342
  H      -65.264     -23.701      75.359
  H      -60.837     -29.859      74.463
  H      -65.807     -25.875      75.265
  H      -65.634     -27.480      71.875
  H      -67.107     -28.891      73.875
  H      -61.320     -31.335      72.744
  H      -68.187     -26.991      74.733
  H      -62.775     -31.156      71.846
  H      -68.433     -25.835      71.895
  H      -67.854     -23.718      73.251
  H      -69.464     -24.384      73.514
  P      -70.564     -28.156      74.611
  C      -73.065     -28.920      74.857
  O      -72.066     -28.282      74.090
  O      -70.627     -26.920      75.624
  O      -70.061     -29.397      75.272
  H      -69.982     -27.034      76.347
  H      -73.994     -28.894      74.326
  H      -73.175     -28.413      75.793
  H      -72.784     -29.937      75.034

 6  7  8  9  10  11  12  13  14  15  26  29  33  34 0
 6-311+G(2d,p)
 ****
 36  38  39  40  41 0
 6-311+G(2d,p)
 ****
 1  2  3  4  5  16  17  18  19  20  21  22  23  24  25 0
 3-21G
 ****
 27  28  30  31  32  35  37  42  43  44  45  46  47 0
 3-21G
 ****
 48  49 0
 3-21G
 ****


