%nproc=1
%NoSave
%Mem=1900MB
#P OB98/GEN NMR

erre ene a

0 1
  C     -282.951     129.230     172.284
  O     -284.106     128.509     172.680
  P     -284.011     126.910     172.749
  C     -283.754     126.654     175.319
  O     -283.144     126.516     174.039
  C     -283.689     125.331     176.090
  O     -284.433     124.308     175.367
  C     -282.266     124.803     176.287
  O     -282.178     124.122     177.548
  C     -282.124     123.760     175.200
  O     -281.114     122.801     175.520
  C     -283.543     123.191     175.158
  N     -282.443     119.258     172.180
  C     -282.141     119.461     173.515
  N     -281.376     118.524     174.106
  N     -282.574     120.483     174.209
  C     -283.325     121.345     173.480
  C     -283.703     121.247     172.158
  C     -283.215     120.114     171.400
  O     -283.419     119.886     170.217
  N     -284.505     122.290     171.785
  C     -284.578     123.053     172.860
  N     -283.852     122.538     173.904
  O     -283.041     126.559     171.523
  O     -285.321     126.207     172.613
  H     -280.279     123.302     175.633
  H     -283.559     126.185     170.787
  H     -282.079     118.458     171.691
  H     -285.116     123.988     172.930
  H     -283.718     122.472     175.966
  H     -281.849     124.237     174.248
  H     -280.960     117.747     173.611
  H     -281.481     125.571     176.232
  H     -281.105     118.673     175.071
  H     -284.190     125.468     177.058
  H     -284.805     126.937     175.183
  H     -283.256     127.441     175.885
  P     -280.739     124.146     178.256
  C     -281.496     125.674     180.220
  O     -280.674     125.516     179.081
  O     -279.726     124.391     177.035
  O     -280.417     122.904     179.027
  H     -278.851     124.032     177.252
  H     -280.857     125.799     181.104
  H     -282.160     124.820     180.381
  H     -282.102     126.575     180.096
  H     -283.167     130.278     172.286
  H     -282.661     128.927     171.300
  H     -282.153     129.029     172.968

 3  4  5  6  7  8  9  10  11  12  23  26  30  31 0
 6-311+G(2d,p)
 ****
 33  35  36  37  38 0
 6-311+G(2d,p)
 ****
 1  2  13  14  15  16  17  18  19  20  21  22  24  25 0
 3-21G
 ****
 27  28  29  32  34  39  40  41  42  43  44  45  46  47  48  49 0
 3-21G
 ****


