%nproc=1
%NoSave
%Mem=1900MB
#P OB98/GEN NMR

erre ene a

0 1
  C     -105.671     -68.376      11.427
  O     -106.006     -67.013      11.262
  H     -106.139     -68.741      12.346
  H     -104.589     -68.491      11.519
  H     -106.042     -68.972      10.587
  P     -105.528     -66.256       9.932
  C     -107.662     -64.852      10.230
  O     -106.278     -64.834       9.916
  C     -108.203     -63.429      10.363
  O     -107.669     -62.839      11.576
  C     -107.824     -62.517       9.189
  O     -108.927     -61.654       8.915
  C     -106.664     -61.705       9.735
  O     -106.539     -60.438       9.090
  C     -107.022     -61.602      11.218
  N     -103.090     -58.528      12.004
  C     -104.154     -58.411      11.130
  N     -104.164     -57.324      10.327
  N     -105.125     -59.283      11.049
  C     -104.996     -60.313      11.921
  C     -103.989     -60.544      12.831
  C     -102.914     -59.578      12.901
  O     -101.939     -59.636      13.642
  N     -104.200     -61.716      13.516
  C     -105.326     -62.190      13.020
  N     -105.844     -61.382      12.042
  O     -105.661     -67.037       8.665
  O     -104.007     -65.865      10.233
  H     -106.522     -60.607       8.124
  H     -103.398     -66.493       9.800
  H     -102.367     -57.832      12.017
  H     -105.804     -63.113      13.325
  H     -107.713     -60.775      11.423
  H     -105.728     -62.258       9.594
  H     -103.462     -56.602      10.347
  H     -107.551     -63.071       8.287
  H     -104.950     -57.204       9.696
  H     -109.290     -63.481      10.485
  H     -107.792     -65.386      11.180
  H     -108.206     -65.390       9.446
  P     -109.528     -61.619       7.430
  C     -111.379     -60.089       8.365
  O     -110.465     -60.324       7.299
  O     -110.135     -62.895       6.949
  O     -108.253     -61.213       6.542
  H     -108.351     -61.610       5.654
  H     -111.943     -59.203       8.162
  H     -110.837     -59.965       9.279
  H     -112.044     -60.922       8.455

 6  7  8  9  10  11  12  13  14  15  26  29  33  34 0
 6-311+G(2d,p)
 ****
 36  38  39  40  41 0
 6-311+G(2d,p)
 ****
 1  2  3  4  5  16  17  18  19  20  21  22  23  24  25 0
 3-21G
 ****
 27  28  30  31  32  35  37  42  43  44  45  46  47 0
 3-21G
 ****
 48  49 0
 3-21G
 ****


