%nproc=1
%NoSave
%Mem=1900MB
#P OB98/GEN NMR

erre ene a

0 1
  C      596.843    -313.903     -31.441
  O      597.511    -314.810     -30.592
  H      597.560    -313.500     -32.157
  H      596.433    -313.079     -30.851
  H      596.037    -314.396     -31.990
  P      596.643    -315.806     -29.689
  C      597.009    -317.830     -31.254
  O      596.069    -316.946     -30.662
  C      596.354    -319.156     -31.644
  O      595.612    -319.682     -30.517
  C      595.342    -318.940     -32.776
  O      595.201    -320.098     -33.596
  C      594.042    -318.694     -32.028
  O      592.888    -318.949     -32.822
  C      594.200    -319.640     -30.843
  N      591.544    -321.171     -26.779
  C      592.060    -321.912     -27.822
  N      591.807    -323.249     -27.784
  N      592.737    -321.406     -28.813
  C      592.845    -320.058     -28.754
  C      592.361    -319.202     -27.788
  C      591.643    -319.787     -26.671
  O      591.149    -319.171     -25.733
  N      592.648    -317.894     -28.085
  C      593.296    -317.950     -29.229
  N      593.453    -319.244     -29.672
  O      595.334    -314.958     -29.337
  O      597.316    -316.312     -28.449
  H      592.796    -318.210     -33.458
  H      594.929    -315.280     -28.512
  H      591.041    -321.615     -26.027
  H      593.681    -317.096     -29.772
  H      593.894    -320.656     -31.109
  H      594.010    -317.640     -31.735
  H      591.149    -323.650     -27.142
  H      595.612    -318.088     -33.411
  H      591.916    -323.753     -28.666
  H      597.119    -319.897     -31.896
  H      597.792    -318.005     -30.512
  H      597.474    -317.356     -32.122
  P      596.302    -320.348     -34.732
  C      596.827    -322.846     -34.139
  O      597.277    -321.509     -34.217
  O      597.208    -319.023     -34.678
  O      595.732    -320.582     -36.090
  H      597.008    -318.451     -35.446
  H      597.618    -323.468     -33.775
  H      596.530    -323.180     -35.111
  H      595.993    -322.903     -33.472

 6  7  8  9  10  11  12  13  14  15  26  29  33  34 0
 6-311+G(2d,p)
 ****
 36  38  39  40  41 0
 6-311+G(2d,p)
 ****
 1  2  3  4  5  16  17  18  19  20  21  22  23  24  25 0
 3-21G
 ****
 27  28  30  31  32  35  37  42  43  44  45  46  47 0
 3-21G
 ****
 48  49 0
 3-21G
 ****


