%nproc=1
%NoSave
%Mem=1900MB
#P OB98/GEN NMR

erre ene a

0 1
  C      -30.144     -38.439      15.127
  O      -28.796     -38.452      15.548
  H      -30.729     -39.075      15.797
  H      -30.212     -38.844      14.115
  H      -30.553     -37.426      15.152
  P      -27.836     -37.303      14.974
  C      -27.018     -36.578      12.620
  O      -27.797     -37.492      13.379
  C      -26.574     -37.221      11.306
  O      -25.479     -38.145      11.588
  C      -27.680     -38.012      10.587
  O      -27.524     -37.842       9.172
  C      -27.341     -39.450      10.932
  O      -27.875     -40.373       9.989
  C      -25.818     -39.388      10.945
  N      -24.578     -44.211      10.330
  C      -24.954     -43.256       9.406
  N      -25.081     -43.658       8.124
  N      -25.192     -42.009       9.715
  C      -25.010     -41.736      11.030
  C      -24.646     -42.589      12.042
  C      -24.401     -43.973      11.691
  O      -24.087     -44.869      12.466
  N      -24.632     -41.939      13.251
  C      -25.007     -40.703      12.969
  N      -25.249     -40.532      11.635
  O      -26.386     -37.790      15.447
  O      -28.141     -35.922      15.446
  H      -28.846     -40.251       9.957
  H      -26.150     -37.358      16.289
  H      -24.423     -45.162      10.043
  H      -25.136     -39.909      13.691
  H      -25.389     -39.380       9.934
  H      -27.735     -39.701      11.924
  H      -24.885     -44.593       7.804
  H      -28.694     -37.728      10.884
  H      -25.317     -42.959       7.429
  H      -26.171     -36.439      10.652
  H      -26.131     -36.296      13.196
  H      -27.610     -35.678      12.423
  P      -28.605     -36.948       8.398
  C      -30.857     -37.330       7.150
  O      -29.747     -37.913       7.817
  O      -27.815     -36.484       7.084
  O      -29.097     -35.777       9.182
  H      -28.097     -35.585       6.830
  H      -31.523     -38.102       6.825
  H      -30.513     -36.776       6.302
  H      -31.371     -36.674       7.820

 6  7  8  9  10  11  12  13  14  15  26  29  33  34 0
 6-311+G(2d,p)
 ****
 36  38  39  40  41 0
 6-311+G(2d,p)
 ****
 1  2  3  4  5  16  17  18  19  20  21  22  23  24  25 0
 3-21G
 ****
 27  28  30  31  32  35  37  42  43  44  45  46  47 0
 3-21G
 ****
 48  49 0
 3-21G
 ****


