%nproc=1
%NoSave
%Mem=1900MB
#P OB98/GEN NMR

erre ene a

0 1
  C     -225.727    -892.212     192.403
  O     -225.784    -893.512     192.951
  H     -226.334    -892.182     191.492
  H     -224.696    -891.952     192.145
  H     -226.126    -891.482     193.115
  P     -225.101    -893.732     194.383
  C     -224.039    -896.022     193.670
  O     -223.845    -894.712     194.162
  C     -222.682    -896.662     193.326
  O     -222.038    -895.972     192.253
  C     -221.671    -896.592     194.474
  O     -221.982    -897.442     195.547
  C     -220.399    -896.962     193.723
  O     -220.307    -898.382     193.532
  C     -220.612    -896.242     192.366
  N     -219.815    -895.022     192.261
  C     -218.448    -895.202     192.038
  O     -217.975    -896.352     191.944
  N     -217.635    -894.092     191.967
  C     -218.161    -892.902     192.076
  N     -217.303    -891.852     192.003
  C     -219.591    -892.672     192.284
  C     -220.361    -893.762     192.359
  O     -226.152    -894.682     195.132
  O     -224.752    -892.482     195.117
  H     -219.582    -898.542     192.900
  H     -226.386    -895.482     194.637
  H     -219.983    -891.662     192.358
  H     -221.431    -893.672     192.511
  H     -220.336    -896.902     191.537
  H     -219.501    -896.662     194.268
  H     -221.564    -895.552     194.813
  H     -222.866    -897.702     193.024
  H     -216.313    -892.062     191.890
  H     -224.686    -896.022     192.790
  H     -217.572    -890.882     192.104
  H     -224.543    -896.612     194.447
  P     -222.313    -896.862     197.005
  C     -222.738    -899.282     197.787
  O     -222.042    -898.062     198.033
  O     -223.640    -896.202     197.128
  O     -221.068    -895.892     197.283
  H     -220.191    -896.322     197.276
  H     -222.475    -900.000     198.536
  H     -222.469    -899.658     196.822
  H     -223.793    -899.104     197.818

 6  7  8  9  10  11  12  13  14  15  16  26  30  31  32  33  35 0
 6-311+G(2d,p)
 ****
 37  38 0
 6-311+G(2d,p)
 ****
 1  2  3  4  5  17  18  19  20  21  22  23  24  25 0
 3-21G
 ****
 27  28  29  34  36  39  40  41  42  43  44  45  46 0
 3-21G
 ****


