%nproc=1
%NoSave
%Mem=1900MB
#P OB98/GEN NMR

erre ene a

0 1
  C     -897.060     772.702    2152.276
  O     -897.750     773.277    2151.167
  P     -898.280     772.267    2150.017
  C     -896.420     772.633    2148.218
  O     -896.990     771.758    2149.191
  C     -895.340     771.884    2147.421
  O     -895.950     770.889    2146.545
  C     -894.550     772.795    2146.502
  O     -893.600     773.562    2147.228
  C     -893.920     771.764    2145.565
  O     -892.770     771.163    2146.163
  C     -895.040     770.735    2145.388
  N     -895.590     769.273    2140.521
  C     -894.720     768.941    2141.469
  N     -894.650     769.370    2142.750
  C     -895.620     770.269    2143.007
  C     -896.580     770.762    2142.126
  C     -896.550     770.210    2140.811
  N     -897.420     770.602    2139.834
  N     -897.380     771.653    2142.753
  C     -896.920     771.769    2143.978
  N     -895.850     770.944    2144.149
  O     -899.040     773.244    2148.978
  O     -899.220     771.201    2150.526
  H     -892.420     770.499    2145.542
  H     -900.000     773.098    2149.032
  H     -893.980     768.173    2141.174
  H     -897.290     772.444    2144.728
  H     -894.700     769.724    2145.385
  H     -893.570     772.235    2144.612
  H     -895.220     773.462    2145.930
  H     -894.680     771.385    2148.119
  H     -895.990     773.505    2148.714
  H     -897.310     770.255    2138.902
  H     -898.100     771.338    2140.029
  H     -897.230     772.982    2147.568
  P     -894.060     775.029    2147.719
  C     -892.520     776.126    2145.974
  O     -893.870     775.953    2146.416
  O     -892.820     775.469    2148.653
  O     -895.420     775.120    2148.355
  H     -891.960     775.258    2148.230
  H     -892.520     776.748    2145.051
  H     -892.070     775.120    2145.740
  H     -891.910     776.649    2146.733
  H     -896.768     773.476    2152.955
  H     -896.190     772.187    2151.926
  H     -897.705     772.012    2152.779

 3  4  5  6  7  8  9  10  11  12  22  25  29  30  31  32 0
 6-311+G(2d,p)
 ****
 33  36  37 0
 6-311+G(2d,p)
 ****
 1  2  13  14  15  16  17  18  19  20  21  23  24  26 0
 3-21G
 ****
 27  28  34  35  38  39  40  41  42  43  44  45  46  47  48 0
 3-21G
 ****


