%nproc=1
%NoSave
%Mem=1900MB
#P OB98/GEN NMR

erre ene a

0 1
  C       27.333    -229.328     -99.365
  O       28.536    -228.633     -99.628
  H       27.462    -229.995     -98.509
  H       26.551    -228.600     -99.128
  H       27.028    -229.902    -100.243
  P       29.818    -229.521    -100.010
  C       31.508    -230.915     -98.611
  O       30.524    -229.887     -98.615
  C       32.183    -230.969     -97.245
  O       32.928    -229.752     -97.006
  C       31.218    -231.099     -96.071
  O       30.790    -232.435     -95.873
  C       32.103    -230.628     -94.930
  O       33.015    -231.676     -94.558
  C       32.863    -229.465     -95.583
  N       32.481    -225.411     -92.483
  C       33.188    -226.556     -92.388
  N       33.233    -227.589     -93.253
  C       32.440    -227.356     -94.311
  C       31.651    -226.240     -94.542
  C       31.696    -225.228     -93.569
  N       30.962    -224.064     -93.655
  N       30.946    -226.376     -95.723
  C       31.330    -227.540     -96.208
  N       32.224    -228.175     -95.389
  O       30.827    -228.463    -100.661
  O       29.556    -230.687    -100.903
  H       33.656    -231.278     -93.937
  H       31.486    -228.926    -101.213
  H       33.802    -226.656     -91.495
  H       30.991    -227.963     -97.145
  H       33.892    -229.378     -95.218
  H       31.539    -230.359     -94.034
  H       30.366    -230.412     -96.172
  H       32.901    -231.802     -97.253
  H       32.257    -230.697     -99.376
  H       30.922    -223.493     -92.826
  H       30.264    -223.988     -94.383
  H       31.030    -231.872     -98.838
  P       29.290    -232.659     -95.348
  C       27.938    -231.791     -93.301
  O       29.216    -231.942     -93.917
  O       29.258    -234.216     -94.992
  O       28.224    -232.274     -96.321
  H       28.350    -234.569     -95.059
  H       28.052    -231.298     -92.358
  H       27.499    -232.755     -93.148
  H       27.304    -231.207     -93.934

 6  7  8  9  10  11  12  13  14  15  25  28  32  33  34  35 0
 6-311+G(2d,p)
 ****
 36  39  40 0
 6-311+G(2d,p)
 ****
 1  2  3  4  5  16  17  18  19  20  21  22  23  24 0
 3-21G
 ****
 26  27  29  30  31  37  38  41  42  43  44  45  46  47 0
 3-21G
 ****
 48 0
 3-21G
 ****


