%nproc=1
%NoSave
%Mem=1900MB
#P OB98/GEN NMR

erre ene a

0 1
  C     -162.127     119.955     162.801
  O     -162.716     119.744     161.513
  P     -162.092     118.601     160.576
  C     -159.868     118.256     159.270
  O     -160.721     119.159     159.954
  C     -159.021     119.003     158.233
  O     -159.836     119.521     157.154
  C     -158.274     120.202     158.804
  O     -157.058     119.816     159.429
  C     -157.973     120.990     157.537
  O     -156.830     120.424     156.867
  C     -159.248     120.770     156.706
  N     -160.516     125.421     155.165
  C     -159.461     124.615     154.787
  N     -158.622     125.119     153.852
  N     -159.244     123.422     155.278
  C     -160.170     123.041     156.191
  C     -161.260     123.750     156.649
  C     -161.479     125.074     156.107
  O     -162.389     125.842     156.416
  N     -161.968     123.032     157.578
  C     -161.322     121.886     157.672
  N     -160.213     121.847     156.859
  O     -163.077     118.598     159.313
  O     -162.013     117.256     161.220
  H     -156.625     121.015     156.117
  H     -163.087     117.715     158.899
  H     -160.632     126.334     154.761
  H     -161.618     121.057     158.305
  H     -159.039     120.674     155.634
  H     -157.731     122.037     157.744
  H     -158.756     126.010     153.398
  H     -158.919     120.791     159.472
  H     -157.860     124.528     153.540
  H     -158.295     118.296     157.808
  H     -160.455     117.475     158.775
  H     -159.239     117.737     160.000
  P     -157.112     119.424     160.985
  C     -157.492     120.770     163.176
  O     -157.561     120.749     161.760
  O     -155.564     119.257     161.362
  O     -157.891     118.187     161.292
  H     -155.461     118.586     162.062
  H     -157.678     121.789     163.521
  H     -156.507     120.451     163.522
  H     -158.262     120.112     163.596
  H     -162.646     120.743     163.306
  H     -161.098     120.224     162.683
  H     -162.197     119.056     163.377

 3  4  5  6  7  8  9  10  11  12  23  26  30  31 0
 6-311+G(2d,p)
 ****
 33  35  36  37  38 0
 6-311+G(2d,p)
 ****
 1  2  13  14  15  16  17  18  19  20  21  22  24  25 0
 3-21G
 ****
 27  28  29  32  34  39  40  41  42  43  44  45  46  47  48  49 0
 3-21G
 ****


