%nproc=1
%NoSave
%Mem=1900MB
#P OB98/GEN NMR

erre ene a

0 1
  C     -248.619    -115.582      71.897
  O     -248.950    -114.210      71.797
  H     -247.531    -115.678      71.928
  H     -248.997    -116.127      71.028
  H     -249.039    -116.004      72.813
  P     -250.508    -113.847      71.679
  C     -252.294    -113.975      69.798
  O     -250.924    -114.096      70.150
  C     -252.491    -114.423      68.350
  O     -252.432    -115.865      68.272
  C     -253.843    -114.040      67.762
  O     -253.892    -112.680      67.365
  C     -253.926    -115.001      66.587
  O     -253.229    -114.491      65.437
  C     -253.235    -116.265      67.140
  N     -254.193    -117.309      67.492
  C     -254.517    -118.197      66.471
  O     -254.042    -118.127      65.337
  N     -255.443    -119.156      66.784
  C     -256.090    -119.286      67.978
  O     -256.964    -120.121      68.171
  C     -255.696    -118.325      69.026
  C     -254.785    -117.391      68.738
  O     -250.520    -112.253      71.824
  O     -251.390    -114.513      72.685
  H     -250.810    -112.004      72.721
  H     -253.517    -113.560      65.339
  H     -255.700    -119.800      66.054
  H     -256.184    -118.403      69.989
  H     -254.495    -116.661      69.485
  H     -252.542    -116.677      66.394
  H     -254.958    -115.170      66.277
  H     -254.648    -114.277      68.469
  H     -251.675    -114.010      67.743
  H     -252.604    -112.930      69.892
  H     -252.895    -114.585      70.481
  P     -255.306    -111.925      67.390
  C     -257.534    -112.176      66.021
  O     -256.227    -112.649      66.290
  O     -254.922    -110.526      66.715
  O     -255.910    -111.828      68.750
  H     -254.250    -110.612      66.016
  H     -257.985    -112.784      65.264
  H     -257.484    -111.163      65.681
  H     -258.122    -112.224      66.914

 6  7  8  9  10  11  12  13  14  15  16  27  31  32  33  34  35 0
 6-311+G(2d,p)
 ****
 36  37 0
 6-311+G(2d,p)
 ****
 1  2  3  4  5  17  18  19  20  21  22  23  24  25 0
 3-21G
 ****
 26  28  29  30  38  39  40  41  42  43  44  45 0
 3-21G
 ****


