%nproc=1
%NoSave
%Mem=1900MB
#P OB98/GEN NMR

erre ene a

0 1
  C      791.534     362.533    -330.452
  O      792.221     361.508    -329.756
  P      791.417     360.234    -329.207
  C      793.084     358.648    -330.354
  O      791.718     358.999    -330.181
  C      793.456     357.456    -329.475
  O      792.530     356.362    -329.678
  C      794.823     356.878    -329.775
  O      795.879     357.697    -329.293
  C      794.723     355.515    -329.068
  O      794.943     355.642    -327.660
  C      793.248     355.146    -329.360
  N      793.120     354.152    -330.415
  C      792.166     353.142    -330.191
  O      791.567     353.076    -329.126
  N      791.948     352.226    -331.191
  C      792.695     352.237    -332.252
  N      792.392     351.340    -333.231
  C      793.806     353.186    -332.453
  C      793.942     354.123    -331.511
  O      789.973     360.468    -328.917
  O      792.214     359.825    -327.876
  H      791.560     359.732    -327.139
  H      795.894     355.799    -327.538
  H      794.434     353.110    -333.320
  H      794.723     354.884    -331.585
  H      792.777     354.753    -328.442
  H      795.450     354.792    -329.452
  H      794.942     356.722    -330.846
  H      793.392     357.773    -328.437
  H      791.599     350.713    -333.071
  H      793.706     359.508    -330.078
  H      792.672     351.477    -334.211
  H      793.268     358.413    -331.418
  P      797.250     357.669    -330.119
  C      796.587     359.622    -331.674
  O      796.965     358.266    -331.570
  O      797.487     356.122    -330.375
  O      798.405     358.287    -329.401
  H      798.451     355.917    -330.322
  H      796.775     359.961    -332.717
  H      797.168     360.256    -331.003
  H      795.514     359.734    -331.465
  H      792.228     363.295    -330.740
  H      790.784     362.955    -329.816
  H      791.072     362.123    -331.326

 3  4  5  6  7  8  9  10  11  12  13  24  27  28  29  30  32 0
 6-311+G(2d,p)
 ****
 34  35 0
 6-311+G(2d,p)
 ****
 1  2  14  15  16  17  18  19  20  21  22  23  25  26 0
 3-21G
 ****
 31  33  36  37  38  39  40  41  42  43  44  45  46 0
 3-21G
 ****


