%nproc=1
%NoSave
%Mem=1900MB
#P OB98/GEN NMR

erre ene a

0 1
  C      -48.464     390.428     542.815
  O      -49.835     390.169     543.016
  H      -48.341     390.896     541.833
  H      -47.892     389.497     542.824
  H      -48.084     391.112     543.580
  P      -50.305     389.440     544.367
  C      -50.356     390.215     546.815
  O      -50.454     390.616     545.455
  C      -50.226     391.421     547.742
  O      -49.086     392.224     547.336
  C      -51.461     392.342     547.736
  O      -51.826     392.667     549.079
  C      -50.968     393.590     547.026
  O      -51.718     394.758     547.370
  C      -49.493     393.603     547.438
  N      -48.692     394.484     546.598
  C      -48.849     395.855     546.828
  O      -49.616     396.259     547.696
  N      -48.168     396.737     546.025
  C      -47.441     396.290     545.054
  N      -46.820     397.220     544.274
  C      -47.274     394.851     544.756
  C      -47.919     394.011     545.562
  O      -49.450     388.294     544.790
  O      -51.829     389.019     544.098
  H      -52.637     394.644     547.053
  H      -52.068     388.281     544.706
  H      -46.662     394.530     543.925
  H      -47.863     392.937     545.426
  H      -49.385     393.918     548.486
  H      -51.050     393.449     545.941
  H      -52.321     391.901     547.227
  H      -50.005     391.062     548.755
  H      -46.969     398.196     544.508
  H      -49.487     389.550     546.922
  H      -46.247     396.992     543.475
  H      -51.263     389.657     547.077
  P      -52.394     391.453     549.969
  C      -51.452     389.052     550.278
  O      -51.178     390.442     550.266
  O      -53.327     390.652     548.948
  O      -53.152     391.906     551.178
  H      -54.265     390.759     549.198
  H      -50.552     388.513     550.488
  H      -51.831     388.755     549.323
  H      -52.180     388.838     551.033

 6  7  8  9  10  11  12  13  14  15  16  26  30  31  32  33  35 0
 6-311+G(2d,p)
 ****
 37  38 0
 6-311+G(2d,p)
 ****
 1  2  3  4  5  17  18  19  20  21  22  23  24  25 0
 3-21G
 ****
 27  28  29  34  36  39  40  41  42  43  44  45  46 0
 3-21G
 ****


