%nproc=1
%NoSave
%Mem=1900MB
#P OB98/GEN NMR

erre ene a

0 1
  C     -250.891     284.548    -183.027
  O     -251.798     283.578    -182.550
  H     -250.007     284.037    -183.419
  H     -250.585     285.199    -182.203
  H     -251.332     285.151    -183.826
  P     -253.331     283.989    -182.349
  C     -254.316     284.310    -179.984
  O     -253.450     284.831    -180.985
  C     -253.601     283.296    -179.090
  O     -252.472     283.923    -178.448
  C     -254.503     282.756    -177.975
  O     -255.290     281.639    -178.342
  C     -253.484     282.382    -176.900
  O     -253.008     281.038    -177.078
  C     -252.349     283.388    -177.121
  N     -251.609     284.785    -172.257
  C     -251.683     283.509    -172.790
  N     -251.585     282.492    -171.907
  N     -251.856     283.275    -174.066
  C     -252.039     284.391    -174.807
  C     -252.006     285.703    -174.385
  C     -251.740     285.959    -172.986
  O     -251.648     287.067    -172.468
  N     -252.273     286.573    -175.417
  C     -252.550     285.780    -176.436
  N     -252.343     284.454    -176.134
  O     -254.041     282.603    -181.962
  O     -253.995     284.607    -183.544
  H     -252.406     281.033    -177.848
  H     -254.959     282.605    -182.287
  H     -251.446     284.904    -171.272
  H     -252.864     286.117    -177.419
  H     -251.368     282.898    -177.067
  H     -253.935     282.428    -175.904
  H     -251.539     282.616    -170.910
  H     -255.142     283.553    -177.576
  H     -251.822     281.551    -172.231
  H     -253.206     282.481    -179.712
  H     -255.143     283.829    -180.509
  H     -254.734     285.122    -179.382
  P     -256.436     281.086    -177.374
  C     -256.197     278.666    -176.374
  O     -255.784     280.017    -176.382
  O     -257.331     280.186    -178.349
  O     -257.243     282.127    -176.671
  H     -258.119     280.680    -178.641
  H     -255.636     278.126    -175.640
  H     -256.028     278.236    -177.339
  H     -257.239     278.613    -176.137

 6  7  8  9  10  11  12  13  14  15  26  29  33  34 0
 6-311+G(2d,p)
 ****
 36  38  39  40  41 0
 6-311+G(2d,p)
 ****
 1  2  3  4  5  16  17  18  19  20  21  22  23  24  25 0
 3-21G
 ****
 27  28  30  31  32  35  37  42  43  44  45  46  47 0
 3-21G
 ****
 48  49 0
 3-21G
 ****


