%nproc=1
%NoSave
%Mem=1900MB
#P OB98/GEN NMR

erre ene a

0 1
  C     -107.898     -39.870    -183.853
  O     -108.377     -41.200    -183.858
  P     -107.557     -42.378    -183.150
  C     -109.067     -42.363    -181.079
  O     -107.738     -42.224    -181.566
  C     -109.155     -43.437    -179.998
  O     -108.522     -42.951    -178.782
  C     -110.590     -43.856    -179.643
  O     -110.570     -45.268    -179.401
  C     -110.861     -43.099    -178.358
  O     -111.900     -43.689    -177.590
  C     -109.471     -43.125    -177.712
  N     -109.315     -42.102    -176.690
  C     -109.529     -42.491    -175.366
  O     -109.963     -43.616    -175.115
  N     -109.260     -41.589    -174.366
  C     -108.991     -40.357    -174.672
  N     -108.664     -39.514    -173.655
  C     -109.003     -39.854    -176.060
  C     -109.125     -40.778    -177.012
  O     -106.141     -42.523    -183.603
  O     -108.400     -43.700    -183.483
  H     -107.806     -44.366    -183.883
  H     -111.636     -44.602    -177.348
  H     -108.895     -38.799    -176.259
  H     -109.119     -40.513    -178.062
  H     -109.276     -44.106    -177.261
  H     -111.154     -42.067    -178.594
  H     -111.303     -43.636    -180.443
  H     -108.581     -44.309    -180.332
  H     -108.626     -39.902    -172.722
  H     -109.707     -42.649    -181.917
  H     -108.140     -38.653    -173.813
  H     -109.425     -41.401    -180.697
  P     -111.902     -46.113    -179.715
  C     -110.953     -47.412    -181.751
  O     -111.897     -46.477    -181.277
  O     -113.032     -44.971    -179.642
  O     -112.234     -47.213    -178.763
  H     -113.886     -45.384    -179.420
  H     -111.050     -47.486    -182.837
  H     -111.144     -48.397    -181.317
  H     -109.935     -47.092    -181.511
  H     -108.588     -39.241    -184.375
  H     -106.944     -39.833    -184.337
  H     -107.799     -39.530    -182.843

 3  4  5  6  7  8  9  10  11  12  13  24  27  28  29  30  32 0
 6-311+G(2d,p)
 ****
 34  35 0
 6-311+G(2d,p)
 ****
 1  2  14  15  16  17  18  19  20  21  22  23  25  26 0
 3-21G
 ****
 31  33  36  37  38  39  40  41  42  43  44  45  46 0
 3-21G
 ****


