%nproc=1
%NoSave
%Mem=1900MB
#P OB98/GEN NMR

erre ene a

0 1
  C      -77.125     -22.600     -79.457
  O      -78.127     -22.245     -78.503
  P      -78.527     -20.706     -78.322
  C      -81.045     -20.754     -77.754
  O      -79.723     -20.600     -77.253
  C      -81.400     -22.243     -77.920
  O      -81.015     -22.974     -76.723
  C      -82.901     -22.470     -78.151
  O      -83.170     -23.297     -79.286
  C      -83.390     -23.000     -76.813
  O      -84.578     -23.764     -76.921
  C      -82.152     -23.724     -76.264
  N      -82.190     -23.834     -74.798
  C      -81.649     -24.985     -74.248
  O      -81.228     -25.924     -74.925
  N      -81.665     -25.060     -72.879
  C      -82.230     -24.148     -72.037
  O      -82.259     -24.282     -70.821
  C      -82.841     -22.976     -72.683
  C      -82.793     -22.875     -74.015
  O      -78.735     -19.932     -79.581
  O      -77.282     -20.110     -77.496
  H      -84.855     -24.038     -76.019
  H      -77.101     -19.213     -77.837
  H      -81.260     -25.885     -72.463
  H      -83.315     -22.241     -72.047
  H      -83.244     -22.029     -74.515
  H      -82.082     -24.738     -76.662
  H      -83.613     -22.145     -76.166
  H      -83.419     -21.534     -78.379
  H      -80.818     -22.624     -78.764
  H      -81.123     -20.261     -78.722
  H      -81.746     -20.241     -77.087
  P      -84.342     -23.030     -80.343
  C      -83.268     -24.542     -82.160
  O      -84.397     -24.273     -81.350
  O      -84.328     -21.690     -80.997
  O      -85.666     -23.204     -79.466
  H      -86.319     -22.525     -79.727
  H      -83.589     -25.144     -83.016
  H      -82.532     -25.103     -81.585
  H      -82.818     -23.614     -82.529
  H      -76.983     -23.661     -79.447
  H      -76.205     -22.115     -79.205
  H      -77.436     -22.290     -80.433

 3  4  5  6  7  8  9  10  11  12  13  23  28  29  30  31  32 0
 6-311+G(2d,p)
 ****
 33  34 0
 6-311+G(2d,p)
 ****
 1  2  14  15  16  17  18  19  20  21  22  24  25  26  27 0
 3-21G
 ****
 35  36  37  38  39  40  41  42  43  44  45 0
 3-21G
 ****


