%nproc=1
%NoSave
%Mem=1900MB
#P OB98/GEN NMR

erre ene a

0 1
  C      118.760     277.664      26.325
  O      118.285     278.998      26.294
  H      119.682     277.586      25.744
  H      118.970     277.393      27.365
  H      118.006     276.979      25.927
  P      117.750     279.539      24.881
  C      120.175     280.278      24.295
  O      118.809     280.656      24.414
  C      121.040     281.498      23.977
  O      120.548     282.117      22.758
  C      121.023     282.563      25.078
  O      122.334     283.122      25.200
  C      120.062     283.610      24.546
  O      120.308     284.900      25.090
  C      120.312     283.510      23.043
  N      118.506     287.460      20.357
  C      119.709     287.228      20.917
  N      120.111     286.141      21.612
  C      119.129     285.218      21.660
  C      117.854     285.316      21.137
  C      117.541     286.510      20.464
  N      116.306     286.773      19.922
  N      117.127     284.175      21.425
  C      117.953     283.407      22.108
  N      119.176     283.996      22.276
  O      116.465     280.396      25.310
  O      117.419     278.497      23.870
  H      119.575     285.495      24.824
  H      115.710     279.796      25.465
  H      120.448     288.018      20.797
  H      117.715     282.428      22.501
  H      121.187     284.085      22.721
  H      119.032     283.326      24.791
  H      120.704     282.168      26.045
  H      122.062     281.156      23.768
  H      120.270     279.542      23.490
  H      116.150     287.680      19.509
  H      115.563     286.105      20.046
  H      120.507     279.825      25.236
  P      123.198     282.667      26.477
  C      124.472     284.570      27.694
  O      124.466     283.644      26.613
  O      123.838     281.275      26.013
  O      122.384     282.504      27.719
  H      123.691     280.594      26.695
  H      125.370     285.151      27.661
  H      124.426     284.037      28.621
  H      123.624     285.218      27.613

 6  7  8  9  10  11  12  13  14  15  25  28  32  33  34  35 0
 6-311+G(2d,p)
 ****
 36  39  40 0
 6-311+G(2d,p)
 ****
 1  2  3  4  5  16  17  18  19  20  21  22  23  24 0
 3-21G
 ****
 26  27  29  30  31  37  38  41  42  43  44  45  46  47 0
 3-21G
 ****
 48 0
 3-21G
 ****


