%nproc=1
%NoSave
%Mem=1900MB
#P OB98/GEN NMR

erre ene a

0 1
  C     -129.986     975.263    -358.805
  O     -130.989     976.140    -358.323
  P     -130.938     977.695    -358.706
  C     -132.060     978.318    -356.469
  O     -132.100     978.446    -357.895
  C     -133.372     978.799    -355.850
  O     -133.493     980.232    -355.962
  C     -134.619     978.233    -356.534
  O     -134.834     976.893    -356.144
  C     -135.691     979.212    -356.066
  O     -136.137     978.886    -354.737
  C     -134.911     980.550    -356.055
  N     -137.058     984.872    -357.680
  C     -137.105     984.236    -356.486
  N     -136.537     983.065    -356.147
  C     -135.888     982.526    -357.192
  C     -135.786     983.041    -358.480
  C     -136.392     984.288    -358.715
  N     -136.316     984.972    -359.905
  N     -135.055     982.176    -359.287
  C     -134.741     981.175    -358.510
  N     -135.156     981.372    -357.216
  O     -130.887     977.994    -360.173
  O     -129.605     978.224    -357.983
  H     -136.867     979.485    -354.513
  H     -128.979     978.566    -358.662
  H     -137.647     984.753    -355.706
  H     -134.203     980.284    -358.813
  H     -135.141     981.145    -355.166
  H     -136.565     979.224    -356.721
  H     -134.514     978.303    -357.618
  H     -133.357     978.549    -354.781
  H     -131.231     978.942    -356.102
  H     -136.655     985.929    -359.912
  H     -135.580     984.714    -360.562
  H     -131.881     977.277    -356.200
  P     -135.039     975.755    -357.253
  C     -137.448     974.985    -356.760
  O     -136.065     974.679    -356.641
  O     -133.789     975.178    -357.834
  O     -135.926     976.487    -358.383
  H     -135.693     976.121    -359.253
  H     -137.716     975.728    -356.002
  H     -138.027     974.094    -356.594
  H     -137.674     975.379    -357.757
  H     -130.179     974.272    -358.452
  H     -129.029     975.587    -358.452
  H     -129.992     975.268    -359.875

 3  4  5  6  7  8  9  10  11  12  22  25  29  30  31  32 0
 6-311+G(2d,p)
 ****
 33  36  37 0
 6-311+G(2d,p)
 ****
 1  2  13  14  15  16  17  18  19  20  21  23  24  26 0
 3-21G
 ****
 27  28  34  35  38  39  40  41  42  43  44  45  46  47  48 0
 3-21G
 ****


