%nproc=1
%NoSave
%Mem=1900MB
#P OB98/GEN NMR

erre ene a

0 1
  C      164.918     -81.943    -177.127
  O      163.842     -81.298    -176.477
  H      164.945     -81.643    -178.176
  H      165.852     -81.637    -176.649
  H      164.823     -83.030    -177.051
  P      162.363     -81.823    -176.808
  C      160.507     -83.064    -175.483
  O      161.804     -82.485    -175.454
  C      159.943     -83.182    -174.068
  O      160.824     -84.042    -173.289
  C      159.817     -81.844    -173.323
  O      158.611     -81.864    -172.554
  C      161.006     -81.858    -172.380
  O      160.805     -81.045    -171.228
  C      161.121     -83.345    -172.067
  N      164.151     -83.154    -167.988
  C      162.815     -83.025    -168.126
  N      162.077     -83.144    -169.248
  C      162.852     -83.496    -170.290
  C      164.223     -83.671    -170.303
  C      164.889     -83.468    -169.080
  N      166.256     -83.530    -168.942
  N      164.659     -83.974    -171.579
  C      163.571     -83.954    -172.324
  N      162.455     -83.667    -171.591
  O      162.651     -83.086    -177.751
  O      161.459     -80.834    -177.460
  H      161.573     -81.143    -170.633
  H      162.718     -82.793    -178.678
  H      162.266     -82.782    -167.219
  H      163.541     -84.108    -173.395
  H      160.409     -83.674    -171.300
  H      161.896     -81.494    -172.906
  H      159.820     -80.969    -173.983
  H      158.971     -83.685    -174.123
  H      160.573     -84.064    -175.923
  H      166.650     -83.264    -168.054
  H      166.824     -83.653    -169.768
  H      159.850     -82.448    -176.104
  P      157.260     -81.412    -173.287
  C      155.511     -82.486    -174.890
  O      156.771     -82.604    -174.238
  O      157.758     -80.296    -174.321
  O      156.218     -80.876    -172.358
  H      157.072     -79.615    -174.441
  H      155.333     -83.359    -175.483
  H      155.515     -81.621    -175.520
  H      154.738     -82.390    -174.157

 6  7  8  9  10  11  12  13  14  15  25  28  32  33  34  35 0
 6-311+G(2d,p)
 ****
 36  39  40 0
 6-311+G(2d,p)
 ****
 1  2  3  4  5  16  17  18  19  20  21  22  23  24 0
 3-21G
 ****
 26  27  29  30  31  37  38  41  42  43  44  45  46  47 0
 3-21G
 ****
 48 0
 3-21G
 ****


