%nproc=1
%NoSave
%Mem=1900MB
#P OB98/GEN NMR

erre ene a

0 1
  C     -894.010     268.738     774.301
  O     -893.240     269.740     773.665
  H     -893.380     267.872     774.526
  H     -894.400     269.136     775.238
  H     -894.850     268.434     773.669
  P     -892.710     269.418     772.184
  C     -894.490     270.383     770.548
  O     -894.030     269.250     771.278
  C     -895.240     269.933     769.291
  O     -894.280     269.430     768.332
  C     -896.260     268.827     769.556
  O     -897.420     269.065     768.747
  C     -895.550     267.569     769.094
  O     -896.470     266.542     768.717
  C     -894.710     268.108     767.942
  N     -893.180     263.814     765.634
  C     -894.370     264.461     765.649
  N     -894.700     265.606     766.281
  C     -893.620     266.114     766.920
  C     -892.350     265.577     766.996
  C     -892.150     264.359     766.316
  N     -890.940     263.677     766.329
  N     -891.520     266.368     767.770
  C     -892.290     267.373     768.150
  N     -893.570     267.259     767.669
  O     -892.170     267.915     772.334
  O     -891.670     270.334     771.651
  H     -897.110     266.912     768.081
  H     -891.280     267.930     772.745
  H     -895.160     263.987     765.079
  H     -891.980     268.196     768.779
  H     -895.280     268.189     767.002
  H     -894.920     267.185     769.895
  H     -896.560     268.765     770.611
  H     -895.710     270.814     768.836
  H     -893.630     270.994     770.263
  H     -890.910     262.784     765.870
  H     -890.180     264.030     766.882
  H     -895.150     270.981     771.181
  P     -898.720     269.630     769.498
  C     -898.300     272.092     768.789
  O     -898.470     271.173     769.859
  O     -898.690     268.892     770.914
  O     -900.000     269.346     768.773
  H     -899.550     268.497     771.114
  H     -898.144     273.074     769.184
  H     -899.176     272.090     768.175
  H     -897.452     271.804     768.203

 6  7  8  9  10  11  12  13  14  15  25  28  32  33  34  35 0
 6-311+G(2d,p)
 ****
 36  39  40 0
 6-311+G(2d,p)
 ****
 1  2  3  4  5  16  17  18  19  20  21  22  23  24 0
 3-21G
 ****
 26  27  29  30  31  37  38  41  42  43  44  45  46  47 0
 3-21G
 ****
 48 0
 3-21G
 ****


