%nproc=1
%NoSave
%Mem=1900MB
#P OB98/GEN NMR

erre ene a

0 1
  C      252.040     264.890    -282.039
  O      251.084     265.297    -282.997
  H      252.391     265.759    -281.478
  H      251.565     264.192    -281.344
  H      252.885     264.389    -282.519
  P      251.628     266.083    -284.287
  C      250.996     264.041    -285.760
  O      250.878     265.441    -285.556
  C      250.156     263.603    -286.958
  O      250.481     262.218    -287.270
  C      248.637     263.691    -286.734
  O      248.026     264.139    -287.948
  C      248.241     262.247    -286.486
  O      246.879     261.989    -286.812
  C      249.235     261.505    -287.372
  N      247.104     256.897    -287.642
  C      246.921     258.019    -288.367
  N      247.574     259.194    -288.264
  C      248.545     259.118    -287.339
  C      248.858     258.044    -286.526
  C      248.072     256.888    -286.693
  N      248.206     255.762    -285.913
  N      249.884     258.374    -285.664
  C      250.166     259.632    -285.933
  N      249.382     260.127    -286.937
  O      253.126     265.530    -284.418
  O      251.585     267.570    -284.200
  H      246.642     261.096    -286.494
  H      253.724     266.077    -283.876
  H      246.140     257.971    -289.122
  H      250.899     260.238    -285.417
  H      248.933     261.489    -288.427
  H      248.395     262.002    -285.427
  H      248.352     264.352    -285.909
  H      250.453     264.204    -287.828
  H      250.637     263.517    -284.867
  H      247.526     255.028    -286.033
  H      248.844     255.784    -285.129
  H      252.050     263.786    -285.919
  P      247.557     265.671    -288.015
  C      249.654     266.881    -288.968
  O      248.340     266.393    -289.211
  O      248.210     266.312    -286.701
  O      246.072     265.848    -288.033
  H      247.638     267.017    -286.350
  H      250.037     267.333    -289.859
  H      250.288     266.069    -288.679
  H      249.625     267.608    -288.184

 6  7  8  9  10  11  12  13  14  15  25  28  32  33  34  35 0
 6-311+G(2d,p)
 ****
 36  39  40 0
 6-311+G(2d,p)
 ****
 1  2  3  4  5  16  17  18  19  20  21  22  23  24 0
 3-21G
 ****
 26  27  29  30  31  37  38  41  42  43  44  45  46  47 0
 3-21G
 ****
 48 0
 3-21G
 ****


