%nproc=1
%NoSave
%Mem=1900MB
#P OB98/GEN NMR

erre ene a

0 1
  C     -181.288     475.111     162.200
  O     -180.531     473.927     162.138
  P     -180.611     472.766     163.231
  C     -182.219     471.303     161.778
  O     -181.978     471.959     163.016
  C     -183.591     470.612     161.778
  O     -183.837     470.064     160.460
  C     -183.631     469.430     162.771
  O     -184.837     469.338     163.515
  C     -183.259     468.244     161.891
  O     -183.647     466.992     162.434
  C     -183.899     468.626     160.564
  N     -184.137     464.989     157.019
  C     -185.108     465.397     157.909
  N     -186.213     464.624     157.980
  N     -184.989     466.450     158.676
  C     -183.787     467.063     158.573
  C     -182.746     466.746     157.729
  C     -182.901     465.602     156.862
  O     -182.021     465.135     156.140
  N     -181.650     467.541     157.950
  C     -182.014     468.318     158.951
  N     -183.288     468.038     159.386
  O     -180.218     473.125     164.623
  O     -179.515     471.717     162.669
  H     -184.625     466.949     162.413
  H     -179.097     471.291     163.446
  H     -184.257     464.118     156.513
  H     -181.389     469.071     159.418
  H     -184.953     468.334     160.530
  H     -182.167     468.225     161.806
  H     -186.272     463.726     157.513
  H     -182.869     469.553     163.541
  H     -186.818     464.754     158.786
  H     -184.370     471.353     161.982
  H     -181.425     470.558     161.663
  H     -182.142     472.006     160.948
  P     -185.126     468.519     164.855
  C     -185.273     470.704     166.189
  O     -184.691     469.419     166.109
  O     -184.036     467.346     164.864
  O     -186.501     467.946     164.951
  H     -184.447     466.525     165.198
  H     -184.698     471.305     166.910
  H     -186.305     470.615     166.546
  H     -185.260     471.205     165.220
  H     -181.057     475.727     161.356
  H     -181.053     475.638     163.101
  H     -182.330     474.869     162.190

 3  4  5  6  7  8  9  10  11  12  23  26  30  31 0
 6-311+G(2d,p)
 ****
 33  35  36  37  38 0
 6-311+G(2d,p)
 ****
 1  2  13  14  15  16  17  18  19  20  21  22  24  25 0
 3-21G
 ****
 27  28  29  32  34  39  40  41  42  43  44  45  46  47  48  49 0
 3-21G
 ****


