%nproc=1
%NoSave
%Mem=1900MB
#P OB98/GEN NMR

erre ene a

0 1
  C       31.235    -891.648    -335.709
  O       31.883    -892.443    -334.737
  H       30.774    -890.793    -335.210
  H       30.455    -892.221    -336.217
  H       31.959    -891.278    -336.441
  P       32.546    -893.827    -335.200
  C       34.285    -893.014    -336.932
  O       34.060    -893.495    -335.618
  C       35.333    -893.869    -337.659
  O       36.549    -893.906    -336.860
  C       34.893    -895.330    -337.878
  O       35.532    -895.794    -339.070
  C       35.487    -896.007    -336.656
  O       35.499    -897.409    -336.798
  C       36.834    -895.289    -336.573
  N       37.475    -895.459    -335.277
  C       38.836    -895.768    -335.291
  O       39.429    -895.899    -336.366
  N       39.490    -895.951    -334.100
  C       38.829    -895.902    -332.989
  N       39.529    -896.109    -331.842
  C       37.375    -895.633    -332.929
  C       36.770    -895.414    -334.096
  O       31.774    -894.609    -336.211
  O       32.718    -894.651    -333.837
  H       34.595    -897.779    -336.711
  H       32.040    -895.348    -333.784
  H       36.860    -895.620    -331.979
  H       35.703    -895.215    -334.150
  H       37.522    -895.653    -337.349
  H       34.886    -895.791    -335.765
  H       33.808    -895.442    -337.960
  H       35.589    -893.388    -338.608
  H       40.521    -896.300    -331.933
  H       34.641    -891.980    -336.850
  H       39.114    -896.113    -330.925
  H       33.351    -893.015    -337.502
  P       34.916    -895.555    -340.534
  C       34.065    -893.215    -341.216
  O       35.199    -894.046    -340.994
  O       33.484    -895.975    -340.670
  O       35.843    -896.420    -341.520
  H       35.306    -896.732    -342.272
  H       34.390    -892.241    -341.516
  H       33.497    -893.139    -340.313
  H       33.456    -893.641    -341.986

 6  7  8  9  10  11  12  13  14  15  16  26  30  31  32  33  35 0
 6-311+G(2d,p)
 ****
 37  38 0
 6-311+G(2d,p)
 ****
 1  2  3  4  5  17  18  19  20  21  22  23  24  25 0
 3-21G
 ****
 27  28  29  34  36  39  40  41  42  43  44  45  46 0
 3-21G
 ****


