%nproc=1
%NoSave
%Mem=1900MB
#P OB98/GEN NMR

erre ene a

0 1
  C       47.854    -169.215    -137.375
  O       47.718    -167.843    -137.684
  H       48.552    -169.667    -138.087
  H       46.887    -169.721    -137.464
  H       48.251    -169.347    -136.366
  P       46.849    -166.911    -136.707
  C       44.339    -166.712    -136.161
  O       45.313    -167.112    -137.119
  C       42.957    -167.204    -136.592
  O       42.963    -168.641    -136.750
  C       41.852    -166.900    -135.584
  O       41.484    -165.538    -135.629
  C       40.781    -167.880    -136.038
  O       40.076    -167.376    -137.187
  C       41.634    -169.112    -136.423
  N       41.681    -170.121    -135.363
  C       40.584    -170.975    -135.280
  O       39.613    -170.904    -136.036
  N       40.616    -171.888    -134.258
  C       41.573    -171.968    -133.285
  O       41.450    -172.651    -132.272
  C       42.743    -171.096    -133.472
  C       42.734    -170.215    -134.474
  O       47.296    -165.491    -136.598
  O       46.942    -167.665    -135.293
  H       47.601    -167.213    -134.729
  H       40.755    -167.194    -137.867
  H       39.802    -172.480    -134.158
  H       43.554    -171.171    -132.755
  H       43.575    -169.543    -134.614
  H       41.235    -169.585    -137.329
  H       40.035    -168.070    -135.266
  H       42.179    -167.178    -134.572
  H       42.726    -166.756    -137.568
  H       44.334    -165.617    -136.102
  H       44.608    -167.120    -135.183
  P       40.799    -164.811    -134.377
  C       38.497    -164.714    -133.256
  O       39.284    -165.325    -134.274
  O       40.957    -163.327    -134.340
  O       41.501    -165.496    -133.103
  H       41.856    -164.794    -132.524
  H       37.510    -165.126    -133.273
  H       38.447    -163.659    -133.429
  H       38.944    -164.898    -132.301

 6  7  8  9  10  11  12  13  14  15  16  27  31  32  33  34  35 0
 6-311+G(2d,p)
 ****
 36  37 0
 6-311+G(2d,p)
 ****
 1  2  3  4  5  17  18  19  20  21  22  23  24  25 0
 3-21G
 ****
 26  28  29  30  38  39  40  41  42  43  44  45 0
 3-21G
 ****


