%nproc=1
%NoSave
%Mem=1900MB
#P OB98/GEN NMR

erre ene a

0 1
  C     -449.732     314.718     -43.374
  O     -449.202     314.072     -42.233
  H     -449.031     314.593     -44.203
  H     -449.848     315.786     -43.171
  H     -450.692     314.287     -43.661
  P     -450.143     313.847     -40.960
  C     -450.330     311.308     -40.545
  O     -449.631     312.507     -40.241
  C     -449.522     310.077     -40.123
  O     -448.350     309.964     -40.988
  C     -449.016     310.129     -38.674
  O     -448.955     308.784     -38.190
  C     -447.617     310.696     -38.853
  O     -446.818     310.462     -37.710
  C     -447.192     309.977     -40.137
  N     -446.042     310.626     -40.779
  C     -444.833     310.575     -40.093
  O     -444.712     310.046     -38.989
  N     -443.771     311.188     -40.698
  C     -443.816     311.884     -41.871
  O     -442.846     312.447     -42.347
  C     -445.133     311.950     -42.529
  C     -446.169     311.323     -41.968
  O     -451.611     313.886     -41.231
  O     -449.694     314.987     -39.929
  H     -446.882     309.528     -37.437
  H     -450.452     315.250     -39.374
  H     -442.890     311.148     -40.219
  H     -445.203     312.506     -43.449
  H     -447.152     311.349     -42.428
  H     -446.915     308.933     -39.924
  H     -447.654     311.773     -39.014
  H     -449.646     310.740     -38.019
  H     -450.129     309.178     -40.300
  H     -450.507     311.281     -41.627
  H     -451.295     311.309     -40.030
  P     -449.910     308.245     -37.018
  C     -451.473     306.509     -38.112
  O     -450.302     306.721     -37.330
  O     -451.084     309.131     -36.732
  O     -448.957     308.141     -35.734
  H     -449.482     308.253     -34.923
  H     -451.625     305.459     -38.249
  H     -451.355     306.980     -39.066
  H     -452.319     306.929     -37.609

 6  7  8  9  10  11  12  13  14  15  16  26  31  32  33  34  35 0
 6-311+G(2d,p)
 ****
 36  37 0
 6-311+G(2d,p)
 ****
 1  2  3  4  5  17  18  19  20  21  22  23  24  25 0
 3-21G
 ****
 27  28  29  30  38  39  40  41  42  43  44  45 0
 3-21G
 ****


