%nproc=1
%NoSave
%Mem=1900MB
#P OB98/GEN NMR

erre ene a

0 1
  C       62.368     -47.370    -432.307
  O       63.344     -48.295    -432.809
  P       64.886     -47.977    -432.514
  C       66.689     -46.340    -433.412
  O       65.420     -46.942    -433.622
  C       66.911     -45.153    -434.372
  O       66.754     -45.578    -435.756
  C       65.935     -43.995    -434.154
  O       66.589     -42.769    -434.514
  C       64.843     -44.281    -435.169
  O       64.058     -43.119    -435.448
  C       65.693     -44.793    -436.335
  N       62.684     -44.593    -440.391
  C       63.269     -43.574    -439.663
  N       63.050     -42.318    -440.104
  N       64.013     -43.771    -438.600
  C       64.172     -45.086    -438.302
  C       63.638     -46.183    -438.930
  C       62.802     -45.948    -440.092
  O       62.243     -46.814    -440.756
  N       64.012     -47.353    -438.312
  C       64.764     -46.955    -437.296
  N       64.925     -45.590    -437.276
  O       65.620     -49.355    -432.903
  O       65.170     -47.605    -431.098
  H       64.575     -42.574    -436.087
  H       65.925     -49.808    -432.102
  H       62.117     -44.386    -441.190
  H       65.214     -47.605    -436.566
  H       66.143     -43.978    -436.910
  H       64.177     -45.066    -434.795
  H       62.541     -42.101    -440.947
  H       65.547     -43.912    -433.129
  H       63.504     -41.558    -439.614
  H       67.937     -44.802    -434.254
  H       67.484     -47.072    -433.551
  H       66.761     -46.019    -432.370
  P       66.763     -41.673    -433.365
  C       65.450     -39.529    -432.685
  O       65.633     -40.571    -433.633
  O       68.119     -40.917    -433.767
  O       66.815     -42.220    -431.977
  H       68.530     -40.520    -432.980
  H       65.896     -38.608    -433.072
  H       65.911     -39.775    -431.717
  H       64.387     -39.371    -432.535
  H       61.388     -47.705    -432.576
  H       62.543     -46.403    -432.730
  H       62.446     -47.313    -431.241

 3  4  5  6  7  8  9  10  11  12  23  26  30  31 0
 6-311+G(2d,p)
 ****
 33  35  36  37  38 0
 6-311+G(2d,p)
 ****
 1  2  13  14  15  16  17  18  19  20  21  22  24  25 0
 3-21G
 ****
 27  28  29  32  34  39  40  41  42  43  44  45  46  47  48  49 0
 3-21G
 ****


