%nproc=1
%NoSave
%Mem=1900MB
#P OB98/GEN NMR

erre ene a

0 1
  C       -2.166     188.362    -308.321
  O       -3.535     188.020    -308.344
  H       -1.575     187.448    -308.229
  H       -1.953     189.008    -307.466
  H       -1.886     188.870    -309.252
  P       -4.576     189.239    -308.452
  C       -4.724     189.416    -305.866
  O       -4.425     190.077    -307.089
  C       -4.278     190.263    -304.678
  O       -2.834     190.302    -304.588
  C       -4.749     191.714    -304.727
  O       -6.076     191.839    -304.247
  C       -3.729     192.390    -303.818
  O       -4.063     192.214    -302.427
  C       -2.436     191.632    -304.173
  N        1.005     195.204    -305.102
  C        0.463     194.782    -303.906
  N        0.858     195.446    -302.797
  N       -0.395     193.802    -303.802
  C       -0.726     193.253    -304.997
  C       -0.245     193.576    -306.248
  C        0.734     194.643    -306.341
  O        1.302     195.019    -307.362
  N       -0.801     192.781    -307.214
  C       -1.649     192.009    -306.557
  N       -1.648     192.270    -305.212
  O       -6.004     188.530    -308.286
  O       -4.500     190.034    -309.711
  H       -4.242     191.272    -302.259
  H       -6.668     189.030    -308.795
  H        1.677     195.955    -305.116
  H       -2.276     191.252    -307.009
  H       -1.781     191.519    -303.300
  H       -3.681     193.468    -303.994
  H        1.240     196.385    -302.844
  H       -4.653     192.119    -305.742
  H        0.449     195.156    -301.916
  H       -4.644     189.772    -303.768
  H       -4.194     188.458    -305.840
  H       -5.803     189.229    -305.810
  P       -6.997     192.988    -304.883
  C       -6.424     194.657    -302.965
  O       -6.394     194.389    -304.363
  O       -8.370     192.859    -304.073
  O       -7.195     192.887    -306.364
  H       -9.086     193.318    -304.554
  H       -5.992     195.618    -302.777
  H       -5.865     193.906    -302.446
  H       -7.437     194.648    -302.622

 6  7  8  9  10  11  12  13  14  15  26  29  33  34 0
 6-311+G(2d,p)
 ****
 36  38  39  40  41 0
 6-311+G(2d,p)
 ****
 1  2  3  4  5  16  17  18  19  20  21  22  23  24  25 0
 3-21G
 ****
 27  28  30  31  32  35  37  42  43  44  45  46  47 0
 3-21G
 ****
 48  49 0
 3-21G
 ****


