%nproc=1
%NoSave
%Mem=1900MB
#P OB98/GEN NMR

erre ene a

0 1
  C     -810.604     -28.530    -829.993
  O     -811.469     -28.447    -831.126
  P     -810.809     -28.624    -832.581
  C     -809.718     -27.056    -834.337
  O     -810.310     -27.169    -833.060
  C     -809.781     -25.625    -834.865
  O     -811.166     -25.287    -835.179
  C     -809.278     -24.556    -833.875
  O     -808.682     -23.502    -834.628
  C     -810.563     -24.036    -833.235
  O     -810.395     -22.755    -832.643
  C     -811.501     -24.083    -834.431
  N     -815.583     -21.210    -833.323
  C     -814.337     -20.879    -833.701
  N     -813.301     -21.711    -833.986
  C     -813.665     -22.988    -833.845
  C     -814.888     -23.480    -833.427
  C     -815.894     -22.529    -833.153
  N     -817.172     -22.861    -832.776
  N     -814.872     -24.860    -833.360
  C     -813.654     -25.198    -833.735
  N     -812.889     -24.106    -834.046
  O     -812.088     -28.908    -833.507
  O     -809.790     -29.717    -832.710
  H     -810.284     -22.097    -833.366
  H     -812.074     -29.830    -833.833
  H     -814.139     -19.813    -833.801
  H     -813.270     -26.221    -833.781
  H     -811.354     -23.223    -835.108
  H     -810.892     -24.736    -832.448
  H     -808.561     -24.949    -833.126
  H     -809.217     -25.557    -835.803
  H     -810.265     -27.703    -835.034
  H     -817.868     -22.127    -832.757
  H     -817.462     -23.825    -832.840
  H     -808.688     -27.403    -834.299
  P     -807.356     -22.827    -834.027
  C     -806.967     -21.233    -832.001
  O     -807.740     -22.274    -832.568
  O     -807.185     -21.483    -834.902
  O     -806.122     -23.693    -834.099
  H     -806.246     -21.231    -834.931
  H     -807.622     -20.621    -831.374
  H     -806.518     -20.600    -832.803
  H     -806.180     -21.649    -831.370
  H     -811.175     -28.395    -829.098
  H     -809.857     -27.767    -830.058
  H     -810.133     -29.490    -829.974

 3  4  5  6  7  8  9  10  11  12  22  25  29  30  31  32 0
 6-311+G(2d,p)
 ****
 33  36  37 0
 6-311+G(2d,p)
 ****
 1  2  13  14  15  16  17  18  19  20  21  23  24  26 0
 3-21G
 ****
 27  28  34  35  38  39  40  41  42  43  44  45  46  47  48 0
 3-21G
 ****


