%nproc=1
%NoSave
%Mem=1900MB
#P OB98/GEN NMR

erre ene a

0 1
  C      -66.472      -5.620     287.184
  O      -65.944      -6.609     286.290
  P      -64.923      -7.730     286.822
  C      -62.975      -6.638     285.581
  O      -63.692      -7.849     285.790
  C      -62.487      -6.457     284.133
  O      -61.774      -7.641     283.677
  C      -63.593      -6.179     283.105
  O      -63.014      -5.320     282.119
  C      -63.859      -7.569     282.538
  O      -64.540      -7.513     281.279
  C      -62.441      -8.143     282.501
  N      -62.443      -9.599     282.451
  C      -61.679     -10.216     281.457
  O      -61.087      -9.525     280.622
  N      -61.652     -11.584     281.394
  C      -62.390     -12.282     282.186
  N      -62.338     -13.643     282.064
  C      -63.284     -11.679     283.217
  C      -63.247     -10.350     283.297
  O      -65.560      -9.040     287.180
  O      -64.254      -7.051     288.120
  H      -65.421      -7.126     281.431
  H      -64.014      -7.750     288.754
  H      -63.898     -12.308     283.846
  H      -63.853      -9.818     284.010
  H      -61.892      -7.777     281.627
  H      -64.485      -8.135     283.235
  H      -64.483      -5.719     283.547
  H      -61.755      -5.635     284.127
  H      -61.738     -14.018     281.330
  H      -62.107      -6.621     286.256
  H      -62.949     -14.271     282.560
  H      -63.605      -5.782     285.860
  P      -63.461      -3.795     281.942
  C      -62.955      -3.852     279.434
  O      -62.680      -3.229     280.668
  O      -63.338      -2.951     283.175
  O      -64.984      -3.871     281.443
  H      -65.415      -3.010     281.581
  H      -62.539      -3.253     278.621
  H      -64.035      -3.955     279.278
  H      -62.499      -4.855     279.413
  H      -67.128      -4.968     286.647
  H      -65.668      -5.051     287.602
  H      -67.014      -6.103     287.970

 3  4  5  6  7  8  9  10  11  12  13  23  27  28  29  30  32 0
 6-311+G(2d,p)
 ****
 34  35 0
 6-311+G(2d,p)
 ****
 1  2  14  15  16  17  18  19  20  21  22  24  25  26 0
 3-21G
 ****
 31  33  36  37  38  39  40  41  42  43  44  45  46 0
 3-21G
 ****


