%nproc=1
%NoSave
%Mem=1900MB
#P OB98/GEN NMR

erre ene a

0 1
  C       21.046     116.265     187.934
  O       19.724     115.786     187.764
  P       18.683     116.739     186.995
  C       18.232     118.323     189.022
  O       17.712     117.368     188.103
  C       17.110     119.252     189.486
  O       16.610     120.036     188.384
  C       15.899     118.513     190.040
  O       16.118     118.069     191.371
  C       14.814     119.574     189.932
  O       14.852     120.469     191.054
  C       15.215     120.308     188.636
  N       14.381     119.938     187.497
  C       13.337     120.809     187.202
  O       13.108     121.826     187.861
  N       12.544     120.459     186.142
  C       12.655     119.320     185.404
  O       11.876     119.030     184.500
  C       13.757     118.416     185.780
  C       14.552     118.760     186.795
  O       17.746     115.716     186.201
  O       19.313     117.739     186.085
  H       14.214     121.185     190.862
  H       17.485     116.103     185.342
  H       11.800     121.092     185.897
  H       13.870     117.501     185.215
  H       15.362     118.102     187.101
  H       15.145     121.392     188.777
  H       13.810     119.134     189.903
  H       15.641     117.668     189.389
  H       17.518     119.938     190.241
  H       19.015     118.904     188.530
  H       18.675     117.796     189.871
  P       15.904     116.504     191.662
  C       13.314     116.688     191.375
  O       14.402     116.393     192.220
  O       16.845     116.305     192.948
  O       16.246     115.640     190.496
  H       16.878     117.104     193.506
  H       13.506     116.378     190.346
  H       13.119     117.761     191.402
  H       12.431     116.159     191.741
  H       21.626     115.534     188.458
  H       21.026     117.175     188.497
  H       21.485     116.448     186.976

 3  4  5  6  7  8  9  10  11  12  13  23  28  29  30  31  32 0
 6-311+G(2d,p)
 ****
 33  34 0
 6-311+G(2d,p)
 ****
 1  2  14  15  16  17  18  19  20  21  22  24  25  26 0
 3-21G
 ****
 27  35  36  37  38  39  40  41  42  43  44  45 0
 3-21G
 ****


