%nproc=1
%NoSave
%Mem=1900MB
#P OB98/GEN NMR

erre ene a

0 1
  C      214.756     -86.573    -224.535
  O      214.623     -85.454    -223.639
  P      213.539     -84.314    -223.967
  C      214.982     -82.396    -222.921
  O      213.747     -83.097    -222.943
  C      214.983     -81.366    -221.787
  O      215.424     -81.974    -220.551
  C      215.926     -80.189    -222.010
  O      215.393     -79.252    -222.927
  C      216.061     -79.641    -220.593
  O      214.952     -78.781    -220.266
  C      216.018     -80.929    -219.746
  N      217.336     -81.320    -219.251
  C      217.421     -81.641    -217.901
  O      216.471     -81.552    -217.128
  N      218.653     -82.038    -217.457
  C      219.803     -82.078    -218.199
  O      220.884     -82.425    -217.736
  C      219.665     -81.651    -219.601
  C      218.463     -81.291    -220.054
  O      212.182     -84.977    -223.423
  O      213.402     -83.943    -225.408
  H      215.025     -78.582    -219.314
  H      211.422     -84.629    -223.925
  H      218.729     -82.303    -216.488
  H      220.557     -81.646    -220.216
  H      218.348     -80.974    -221.087
  H      215.350     -80.795    -218.887
  H      216.973     -79.051    -220.458
  H      216.902     -80.554    -222.348
  H      213.954     -81.014    -221.644
  H      215.122     -81.878    -223.875
  H      215.797     -83.117    -222.789
  P      216.427     -78.612    -223.981
  C      215.138     -76.335    -223.913
  O      215.626     -77.414    -224.682
  O      216.492     -79.769    -225.086
  O      217.741     -78.256    -223.368
  H      215.646     -80.237    -225.178
  H      215.798     -76.112    -223.070
  H      214.142     -76.579    -223.534
  H      215.068     -75.448    -224.550
  H      215.516     -87.233    -224.171
  H      215.026     -86.220    -225.509
  H      213.825     -87.098    -224.591

 3  4  5  6  7  8  9  10  11  12  13  23  28  29  30  31  32 0
 6-311+G(2d,p)
 ****
 33  34 0
 6-311+G(2d,p)
 ****
 1  2  14  15  16  17  18  19  20  21  22  24  25  26 0
 3-21G
 ****
 27  35  36  37  38  39  40  41  42  43  44  45 0
 3-21G
 ****


