%nproc=1
%NoSave
%Mem=1900MB
#P OB98/GEN NMR

erre ene a

0 1
  C      530.859     447.863    -196.586
  O      531.894     447.209    -195.874
  H      530.010     447.187    -196.708
  H      530.536     448.738    -196.016
  H      531.220     448.192    -197.565
  P      532.493     445.872    -196.527
  C      534.793     444.675    -196.438
  O      533.903     445.585    -195.809
  C      536.208     444.879    -195.906
  O      536.793     446.026    -196.578
  C      536.298     445.120    -194.385
  O      537.131     444.126    -193.769
  C      536.980     446.476    -194.255
  O      537.931     446.527    -193.189
  C      537.644     446.673    -195.617
  N      540.990     450.508    -195.849
  C      541.166     449.165    -195.878
  N      540.224     448.200    -195.920
  C      539.004     448.740    -195.954
  C      538.664     450.079    -195.957
  C      539.724     450.994    -195.873
  N      539.545     452.361    -195.782
  N      537.287     450.246    -195.984
  C      536.806     449.030    -195.965
  N      537.794     448.077    -195.926
  O      532.908     446.337    -198.002
  O      531.552     444.713    -196.556
  H      537.421     446.424    -192.364
  H      532.572     445.694    -198.655
  H      542.196     448.822    -195.865
  H      535.746     448.765    -195.937
  H      538.633     446.197    -195.661
  H      536.207     447.242    -194.071
  H      535.309     445.127    -193.905
  H      536.811     444.005    -196.180
  H      534.792     444.850    -197.524
  H      540.369     452.926    -195.614
  H      538.617     452.718    -195.690
  H      534.450     443.655    -196.256
  P      536.430     443.161    -192.696
  C      537.148     440.994    -191.449
  O      537.558     442.168    -192.136
  O      535.516     442.211    -193.603
  O      535.630     443.881    -191.662
  H      534.759     441.883    -193.090
  H      538.011     440.441    -191.141
  H      536.551     440.390    -192.100
  H      536.573     441.267    -190.589

 6  7  8  9  10  11  12  13  14  15  25  28  32  33  34  35 0
 6-311+G(2d,p)
 ****
 36  39  40 0
 6-311+G(2d,p)
 ****
 1  2  3  4  5  16  17  18  19  20  21  22  23  24 0
 3-21G
 ****
 26  27  29  30  31  37  38  41  42  43  44  45  46  47  48 0
 3-21G
 ****


