%nproc=1
%NoSave
%Mem=1900MB
#P OB98/GEN NMR

erre ene a

0 1
  C       16.720     647.414     -45.660
  O       16.042     648.201     -46.614
  H       17.794     647.474     -45.862
  H       16.415     646.367     -45.743
  H       16.530     647.783     -44.649
  P       14.437     648.262     -46.591
  C       14.494     650.242     -44.960
  O       14.073     649.790     -46.239
  C       15.685     651.198     -45.076
  O       16.878     650.454     -45.438
  C       15.487     652.298     -46.129
  O       15.863     653.565     -45.582
  C       16.466     651.915     -47.236
  O       16.868     653.024     -48.036
  C       17.575     651.248     -46.414
  N       18.467     650.446     -47.246
  C       19.792     650.893     -47.334
  O       20.143     651.904     -46.727
  N       20.662     650.222     -48.150
  C       20.239     649.220     -48.857
  N       21.146     648.615     -49.671
  C       18.841     648.732     -48.817
  C       18.021     649.384     -47.999
  O       13.790     647.241     -45.713
  O       13.995     648.139     -48.127
  H       17.306     652.674     -48.845
  H       13.067     647.817     -48.168
  H       18.544     647.897     -49.426
  H       16.980     649.100     -47.894
  H       18.168     651.995     -45.877
  H       15.991     651.177     -47.892
  H       14.467     652.356     -46.508
  H       15.881     651.629     -44.086
  H       22.090     648.987     -49.672
  H       14.763     649.373     -44.347
  H       20.930     647.841     -50.283
  H       13.657     650.765     -44.483
  P       15.101     654.845     -46.184
  C       13.618     655.085     -44.065
  O       14.538     655.708     -44.951
  O       13.793     654.223     -46.855
  O       15.918     655.608     -47.176
  H       13.860     654.285     -47.824
  H       13.334     655.778     -43.300
  H       14.078     654.229     -43.618
  H       12.749     654.780     -44.610

 6  7  8  9  10  11  12  13  14  15  16  26  30  31  32  33  35 0
 6-311+G(2d,p)
 ****
 37  38 0
 6-311+G(2d,p)
 ****
 1  2  3  4  5  17  18  19  20  21  22  23  24  25 0
 3-21G
 ****
 27  28  29  34  36  39  40  41  42  43  44  45  46 0
 3-21G
 ****


