%nproc=1
%NoSave
%Mem=1900MB
#P OB98/GEN NMR

erre ene a

0 1
  C      -46.564    -153.496      41.152
  O      -45.176    -153.608      40.817
  P      -44.806    -154.404      39.474
  C      -42.337    -153.543      39.661
  O      -43.221    -154.649      39.539
  C      -40.888    -154.021      39.567
  O      -40.514    -154.747      40.762
  C      -40.620    -154.972      38.412
  O      -40.585    -154.286      37.170
  C      -39.295    -155.586      38.846
  O      -38.209    -154.703      38.530
  C      -39.474    -155.679      40.378
  N      -39.767    -157.029      40.838
  C      -39.003    -157.491      41.903
  O      -38.105    -156.823      42.426
  N      -39.284    -158.757      42.340
  C      -40.214    -159.597      41.807
  O      -40.430    -160.719      42.248
  C      -40.960    -159.074      40.649
  C      -40.709    -157.836      40.223
  O      -44.986    -153.256      38.375
  O      -45.644    -155.619      39.265
  H      -44.726    -152.377      38.696
  H      -38.304    -153.927      39.117
  H      -38.745    -159.103      43.120
  H      -41.690    -159.726      40.186
  H      -41.245    -157.433      39.370
  H      -38.560    -155.341      40.881
  H      -39.096    -156.544      38.353
  H      -41.397    -155.749      38.381
  H      -40.244    -153.135      39.485
  H      -42.491    -153.044      40.623
  H      -42.567    -152.821      38.872
  P      -41.368    -154.964      35.940
  C      -42.523    -152.879      34.868
  O      -41.494    -153.838      34.808
  O      -42.848    -155.079      36.543
  O      -40.782    -156.264      35.500
  H      -43.131    -154.274      37.011
  H      -42.245    -152.023      34.244
  H      -42.685    -152.527      35.892
  H      -43.450    -153.310      34.481
  H      -46.668    -152.946      42.064
  H      -46.981    -154.474      41.276
  H      -47.080    -152.985      40.366

 3  4  5  6  7  8  9  10  11  12  13  24  28  29  30  31  32 0
 6-311+G(2d,p)
 ****
 33  34 0
 6-311+G(2d,p)
 ****
 1  2  14  15  16  17  18  19  20  21  22  23  25  26  27 0
 3-21G
 ****
 35  36  37  38  39  40  41  42  43  44  45 0
 3-21G
 ****


