%nproc=1
%NoSave
%Mem=1900MB
#P OB98/GEN NMR

erre ene a

0 1
  C        3.784       7.850     -14.146
  O        2.900       6.829     -13.739
  H        4.447       7.450     -14.917
  H        4.389       8.174     -13.295
  H        3.243       8.706     -14.558
  P        1.560       7.234     -12.965
  C       -0.539       8.641     -13.485
  O        0.806       8.348     -13.842
  C       -0.846      10.135     -13.597
  O        0.020      10.889     -12.721
  C       -0.597      10.676     -15.005
  O       -1.662      10.499     -15.919
  C       -0.351      12.157     -14.731
  O       -1.593      12.879     -14.668
  C        0.329      12.140     -13.360
  N        4.338      15.227     -12.663
  C        2.993      15.502     -12.511
  N        2.676      16.775     -12.190
  N        2.053      14.610     -12.679
  C        2.513      13.406     -13.092
  C        3.820      13.021     -13.290
  C        4.858      14.001     -13.048
  O        6.064      13.811     -13.175
  N        3.901      11.714     -13.708
  C        2.646      11.336     -13.833
  N        1.767      12.320     -13.446
  O        2.091       8.084     -11.713
  O        0.708       6.087     -12.516
  H       -1.392      13.826     -14.560
  H        1.452       8.029     -10.980
  H        5.020      15.945     -12.493
  H        2.320      10.359     -14.173
  H       -0.057      12.935     -12.711
  H        0.244      12.621     -15.522
  H        3.355      17.520     -12.165
  H        0.321      10.247     -15.421
  H        1.710      17.076     -12.330
  H       -1.876      10.317     -13.270
  H       -0.670       8.310     -12.453
  H       -1.230       8.062     -14.102
  P       -1.385      10.562     -17.495
  C        0.294       9.319     -19.046
  O        0.005       9.810     -17.756
  O       -1.036      12.105     -17.731
  O       -2.518      10.112     -18.350
  H       -1.828      12.587     -18.033
  H        1.255       8.849     -19.042
  H        0.297      10.130     -19.744
  H       -0.451       8.605     -19.331

 6  7  8  9  10  11  12  13  14  15  26  29  33  34 0
 6-311+G(2d,p)
 ****
 36  38  39  40  41 0
 6-311+G(2d,p)
 ****
 1  2  3  4  5  16  17  18  19  20  21  22  23  24  25 0
 3-21G
 ****
 27  28  30  31  32  35  37  42  43  44  45  46  47 0
 3-21G
 ****
 48  49 0
 3-21G
 ****


