%nproc=1
%NoSave
%Mem=1900MB
#P OB98/GEN NMR

erre ene a

0 1
  C      142.097    -529.961     512.321
  O      140.752    -529.706     512.686
  P      139.555    -530.361     511.854
  C      138.073    -529.458     509.907
  O      139.325    -529.440     510.561
  C      137.773    -528.106     509.250
  O      137.507    -527.153     510.299
  C      138.917    -527.529     508.425
  O      138.390    -526.526     507.552
  C      139.763    -526.869     509.499
  O      140.639    -525.878     508.965
  C      138.693    -526.342     510.491
  N      139.157    -526.435     511.888
  C      140.330    -525.756     512.210
  O      140.926    -525.042     511.408
  N      140.837    -525.991     513.455
  C      140.307    -526.869     514.365
  O      140.926    -527.305     515.340
  C      138.956    -527.371     514.064
  C      138.455    -527.156     512.839
  O      138.278    -530.054     512.769
  O      139.705    -531.816     511.578
  H      141.105    -525.461     509.724
  H      138.073    -530.833     513.327
  H      141.756    -525.618     513.639
  H      138.443    -527.943     514.823
  H      137.486    -527.551     512.574
  H      138.442    -525.288     510.286
  H      140.380    -527.630     509.985
  H      139.488    -528.267     507.859
  H      136.860    -528.203     508.638
  H      137.294    -529.721     510.630
  H      138.062    -530.242     509.149
  P      139.391    -525.862     506.494
  C      141.420    -524.288     506.691
  O      140.603    -525.244     507.344
  O      138.770    -524.935     505.499
  O      140.069    -527.125     505.781
  H      140.465    -526.856     504.930
  H      141.823    -523.601     507.439
  H      140.848    -523.715     505.950
  H      142.241    -524.797     506.191
  H      142.752    -529.441     512.988
  H      142.265    -529.623     511.320
  H      142.289    -531.012     512.379

 3  4  5  6  7  8  9  10  11  12  13  23  28  29  30  31  32 0
 6-311+G(2d,p)
 ****
 33  34 0
 6-311+G(2d,p)
 ****
 1  2  14  15  16  17  18  19  20  21  22  24  25  26  27 0
 3-21G
 ****
 35  36  37  38  39  40  41  42  43  44  45 0
 3-21G
 ****


