%nproc=1
%NoSave
%Mem=1900MB
#P OB98/GEN NMR

erre ene a

0 1
  C     -407.779    -230.163     -86.261
  O     -408.463    -228.930     -86.436
  P     -410.003    -228.995     -86.902
  C     -410.438    -228.074     -89.287
  O     -409.966    -229.159     -88.493
  C     -409.304    -227.106     -89.602
  O     -408.227    -227.813     -90.256
  C     -409.677    -225.978     -90.551
  O     -410.346    -224.916     -89.871
  C     -408.308    -225.537     -91.042
  O     -407.708    -224.652     -90.073
  C     -407.540    -226.867     -91.107
  N     -405.952    -226.082     -95.863
  C     -405.839    -225.278     -94.738
  N     -405.188    -224.104     -94.907
  N     -406.326    -225.590     -93.568
  C     -406.917    -226.810     -93.537
  C     -407.096    -227.699     -94.579
  C     -406.602    -227.319     -95.884
  O     -406.728    -227.960     -96.919
  N     -407.730    -228.838     -94.156
  C     -407.908    -228.653     -92.861
  N     -407.456    -227.426     -92.443
  O     -410.504    -227.491     -86.695
  O     -410.845    -229.976     -86.155
  H     -407.710    -225.118     -89.223
  H     -411.475    -227.482     -86.552
  H     -405.551    -225.802     -96.731
  H     -408.348    -229.384     -92.190
  H     -406.524    -226.758     -90.712
  H     -408.353    -224.984     -91.991
  H     -404.681    -223.873     -95.752
  H     -410.270    -226.350     -91.395
  H     -405.064    -223.520     -94.096
  H     -408.914    -226.706     -88.654
  H     -411.216    -227.538     -88.733
  H     -410.877    -228.464     -90.206
  P     -411.173    -223.888     -90.789
  C     -410.110    -221.542     -91.109
  O     -410.075    -222.919     -91.434
  O     -411.927    -222.970     -89.715
  O     -412.124    -224.542     -91.737
  H     -412.739    -222.593     -90.099
  H     -410.409    -221.376     -90.073
  H     -410.806    -221.028     -91.780
  H     -409.112    -221.126     -91.254
  H     -406.772    -229.972     -85.953
  H     -407.773    -230.702     -87.185
  H     -408.277    -230.744     -85.513

 3  4  5  6  7  8  9  10  11  12  23  26  30  31  33  0
 6-311+G(2d,p)
 ****
 35  36  37  38 0
 6-311+G(2d,p)
 ****
 1  2  13  14  15  16  17  18  19  20  21  22  24  25  27  28  29 0
 3-21G
 ****
 32  34  39  40  41  42  43  44  45  46  47  48  49 0
 3-21G
 ****


