%nproc=1
%NoSave
%Mem=1900MB
#P OB98/GEN NMR

erre ene a

0 1
  C      387.981     106.146    -345.061
  O      389.380     106.341    -345.013
  P      390.283     105.672    -343.861
  C      391.773     107.681    -343.202
  O      391.682     106.457    -343.910
  C      393.193     108.251    -343.304
  O      394.122     107.264    -342.799
  C      393.622     108.616    -344.729
  O      394.464     109.772    -344.635
  C      394.426     107.399    -345.157
  O      395.327     107.691    -346.219
  C      395.098     107.016    -343.839
  N      395.548     105.630    -343.818
  C      396.545     105.257    -344.728
  O      397.000     106.067    -345.530
  N      396.997     103.963    -344.707
  C      396.447     103.097    -343.910
  N      396.978     101.842    -343.888
  C      395.325     103.422    -343.018
  C      394.947     104.696    -343.006
  O      390.400     104.188    -343.940
  O      389.645     106.212    -342.502
  H      396.005     106.988    -346.247
  H      388.883     105.661    -342.186
  H      394.882     102.658    -342.391
  H      394.148     105.033    -342.361
  H      395.946     107.686    -343.633
  H      393.745     106.614    -345.499
  H      392.778     108.836    -345.387
  H      393.257     109.128    -342.648
  H      397.851     101.706    -344.385
  H      391.547     107.488    -342.149
  H      396.832     101.230    -343.094
  H      391.035     108.389    -343.586
  P      393.828     111.204    -344.994
  C      394.095     110.917    -347.557
  O      394.415     111.667    -346.413
  O      394.621     112.167    -343.977
  O      392.361     111.354    -344.787
  H      394.077     112.955    -343.795
  H      394.568     111.377    -348.427
  H      393.010     110.908    -347.719
  H      394.459     109.888    -347.461
  H      387.576     106.674    -345.899
  H      387.538     106.515    -344.159
  H      387.770     105.102    -345.161

 3  4  5  6  7  8  9  10  11  12  13  23  27  28  29  30  32 0
 6-311+G(2d,p)
 ****
 34  35 0
 6-311+G(2d,p)
 ****
 1  2  14  15  16  17  18  19  20  21  22  24  25  26 0
 3-21G
 ****
 31  33  36  37  38  39  40  41  42  43  44  45  46 0
 3-21G
 ****


