%nproc=1
%NoSave
%Mem=1900MB
#P OB98/GEN NMR

erre ene a

0 1
  C       -7.436     416.578     273.296
  O       -6.247     416.965     273.961
  P       -5.176     417.831     273.128
  C       -3.669     417.410     271.059
  O       -4.661     416.894     271.936
  C       -3.136     416.318     270.118
  O       -4.249     415.660     269.477
  C       -2.203     416.842     269.022
  O       -1.173     415.865     268.813
  C       -3.089     416.887     267.791
  O       -2.336     416.802     266.587
  C       -4.021     415.688     268.055
  N       -5.277     415.790     267.312
  C       -5.272     415.327     265.992
  O       -4.224     414.939     265.486
  N       -6.436     415.381     265.268
  C       -7.491     415.935     265.785
  N       -8.625     415.952     265.024
  C       -7.507     416.552     267.127
  C       -6.380     416.425     267.836
  O       -3.920     417.897     274.122
  O       -5.654     419.194     272.734
  H       -2.925     417.045     265.838
  H       -3.432     418.733     274.012
  H       -8.393     417.038     267.496
  H       -6.306     416.824     268.841
  H       -3.532     414.752     267.772
  H       -3.662     417.823     267.781
  H       -1.748     417.808     269.269
  H       -2.618     415.571     270.735
  H       -8.584     415.541     264.108
  H       -2.832     417.795     271.640
  H       -9.491     416.371     265.347
  H       -4.090     418.242     270.479
  P        0.274     416.387     268.360
  C        1.274     417.093     266.101
  O        0.218     416.413     266.755
  O        1.174     415.095     268.642
  O        0.836     417.595     269.040
  H        2.114     415.299     268.448
  H        1.190     416.914     265.021
  H        2.238     416.724     266.446
  H        1.192     418.169     266.285
  H       -8.051     416.012     273.965
  H       -7.190     415.979     272.445
  H       -7.966     417.451     272.976

 3  4  5  6  7  8  9  10  11  12  13  21  23  27  28  29  30  32 0
 6-311+G(2d,p)
 ****
 34  35 0
 6-311+G(2d,p)
 ****
 1  2  14  15  16  17  18  19  20  22  24  25  26 0
 3-21G
 ****
 31  33  36  37  38  39  40  41  42  43  44  45  46 0
 3-21G
 ****


