%nproc=1
%NoSave
%Mem=1900MB
#P OB98/GEN NMR

erre ene a

0 1
  C      592.086    -550.742     -97.187
  O      591.710    -550.662     -95.825
  H      592.870    -550.005     -97.376
  H      591.225    -550.517     -97.826
  H      592.472    -551.743     -97.420
  P      590.690    -551.777     -95.286
  C      588.268    -552.315     -96.151
  O      589.211    -551.334     -95.751
  C      587.277    -551.706     -97.141
  O      587.928    -551.292     -98.355
  C      586.205    -552.678     -97.615
  O      585.257    -552.982     -96.613
  C      585.630    -551.900     -98.792
  O      584.727    -550.879     -98.347
  C      586.912    -551.275     -99.405
  N      587.363    -551.961    -100.600
  C      586.744    -551.563    -101.795
  O      585.880    -550.676    -101.784
  N      587.088    -552.206    -102.965
  C      587.988    -553.134    -102.942
  N      588.286    -553.743    -104.128
  C      588.686    -553.565    -101.714
  C      588.322    -552.948    -100.591
  O      590.667    -551.494     -93.711
  O      591.025    -553.184     -95.661
  H      584.607    -550.268     -99.105
  H      590.460    -550.571     -93.485
  H      589.442    -554.345    -101.753
  H      588.787    -553.204     -99.648
  H      586.743    -550.216     -99.650
  H      585.076    -552.541     -99.473
  H      586.675    -553.590     -98.010
  H      586.830    -550.818     -96.669
  H      587.770    -553.431    -104.948
  H      587.746    -552.734     -95.287
  H      588.942    -554.497    -104.234
  H      588.823    -553.132     -96.627
  P      584.428    -554.359     -96.668
  C      583.224    -555.538     -98.608
  O      583.534    -554.293     -97.997
  O      583.676    -554.690     -95.427
  O      585.547    -555.444     -97.060
  H      585.990    -555.281     -97.912
  H      582.627    -555.369     -99.480
  H      582.681    -556.149     -97.917
  H      584.130    -556.034     -98.887

 6  7  8  9  10  11  12  13  14  15  16  26  30  31  32  33  35 0
 6-311+G(2d,p)
 ****
 37  38 0
 6-311+G(2d,p)
 ****
 1  2  3  4  5  17  18  19  20  21  22  23  24  25 0
 3-21G
 ****
 27  28  29  34  36  39  40  41  42  43  44  45  46 0
 3-21G
 ****


