%nproc=1
%NoSave
%Mem=1900MB
#P OB98/GEN NMR

erre ene a

0 1
  C      192.757     171.927      19.283
  O      193.492     172.452      20.370
  H      191.690     172.130      19.445
  H      192.898     170.844      19.229
  H      193.061     172.389      18.338
  P      195.083     172.547      20.256
  C      195.236     170.590      21.946
  O      195.647     171.100      20.682
  C      196.447     170.368      22.846
  O      197.258     169.297      22.277
  C      197.347     171.617      22.980
  O      197.907     171.639      24.295
  C      198.432     171.324      21.957
  O      199.597     172.073      22.191
  C      198.597     169.813      22.140
  N      199.320     169.214      21.025
  C      200.701     169.099      21.158
  O      201.325     169.471      22.148
  N      201.367     168.589      20.074
  C      200.815     168.303      18.858
  O      201.478     167.924      17.897
  C      199.355     168.495      18.759
  C      198.689     168.928      19.827
  O      195.729     173.697      20.969
  O      195.374     172.565      18.681
  H      200.107     172.155      21.365
  H      196.258     172.943      18.503
  H      202.372     168.487      20.158
  H      198.892     168.286      17.803
  H      197.618     169.099      19.778
  H      199.134     169.587      23.078
  H      198.079     171.557      20.950
  H      196.818     172.551      22.782
  H      196.106     170.029      23.830
  H      194.716     169.638      21.772
  H      194.535     171.295      22.411
  P      197.276     172.545      25.477
  C      198.337     174.662      24.480
  O      197.151     174.078      25.003
  O      197.944     172.366      26.797
  O      195.751     172.059      25.560
  H      195.511     171.932      26.499
  H      198.141     175.675      24.198
  H      198.659     174.109      23.622
  H      199.104     174.641      25.226

 6  7  8  9  10  11  12  13  14  15  16  26  31  32  33  34  35 0
 6-311+G(2d,p)
 ****
 36  37 0
 6-311+G(2d,p)
 ****
 1  2  3  4  5  17  18  19  20  21  22  23  24  25 0
 3-21G
 ****
 27  28  29  30  38  39  40  41  42  43  44  45 0
 3-21G
 ****


