%nproc=1
%NoSave
%Mem=1900MB
#P OB98/GEN NMR

erre ene a

0 1
  C     -125.502    -477.638      71.146
  O     -126.897    -477.979      71.074
  P     -127.998    -476.821      71.048
  C     -128.834    -476.785      68.563
  O     -128.026    -476.182      69.564
  C     -128.525    -476.198      67.179
  O     -129.060    -474.854      67.088
  C     -127.040    -476.058      66.892
  O     -126.458    -477.297      66.533
  C     -127.047    -475.041      65.745
  O     -127.337    -475.694      64.486
  C     -128.226    -474.128      66.148
  N     -127.767    -472.843      66.685
  C     -127.260    -471.919      65.780
  O     -127.171    -472.162      64.579
  N     -126.883    -470.711      66.308
  C     -126.870    -470.374      67.630
  O     -126.502    -469.291      68.035
  C     -127.334    -471.430      68.561
  C     -127.742    -472.588      68.069
  O     -127.270    -475.653      71.876
  O     -129.329    -477.148      71.639
  H     -127.289    -475.019      63.788
  H     -127.960    -475.077      72.295
  H     -126.542    -470.026      65.644
  H     -127.312    -471.227      69.616
  H     -128.073    -473.378      68.731
  H     -128.873    -473.915      65.287
  H     -126.091    -474.540      65.650
  H     -126.523    -475.627      67.749
  H     -129.034    -476.802      66.439
  H     -129.910    -476.636      68.803
  H     -128.662    -477.872      68.558
  P     -125.400    -477.925      67.556
  C     -126.687    -480.154      67.128
  O     -126.010    -479.323      68.038
  O     -125.559    -476.934      68.806
  O     -124.006    -477.979      66.978
  H     -126.485    -476.606      68.908
  H     -126.258    -480.112      66.136
  H     -127.750    -479.879      67.086
  H     -126.615    -481.176      67.502
  H     -124.916    -478.533      71.154
  H     -125.316    -477.082      72.041
  H     -125.236    -477.045      70.296

 3  4  5  6  7  8  9  10  11  12  13  23  28  29  30  31  32 0
 6-311+G(2d,p)
 ****
 33  34 0
 6-311+G(2d,p)
 ****
 1  2  14  15  16  17  18  19  20  21  22  24  25  26 0
 3-21G
 ****
 27  35  36  37  38  39  40  41  42  43  44  45 0
 3-21G
 ****


