%nproc=1
%NoSave
%Mem=1900MB
#P OB98/GEN NMR

erre ene a

0 1
  C      -24.603      87.581     106.045
  O      -23.865      86.700     106.869
  H      -24.107      88.555     106.039
  H      -25.618      87.702     106.432
  H      -24.639      87.195     105.022
  P      -24.495      85.239     107.100
  C      -26.872      84.573     107.943
  O      -25.828      85.535     107.950
  C      -27.909      84.923     109.005
  O      -27.346      84.791     110.329
  C      -28.434      86.355     108.932
  O      -29.391      86.552     107.906
  C      -29.052      86.477     110.314
  O      -30.293      85.747     110.353
  C      -27.974      85.793     111.179
  N      -26.971      86.731     111.693
  C      -27.240      87.318     112.935
  O      -28.271      87.050     113.547
  N      -26.345      88.230     113.441
  C      -25.265      88.516     112.781
  N      -24.419      89.427     113.332
  C      -24.936      87.912     111.477
  C      -25.820      87.038     110.999
  O      -23.522      84.584     108.189
  O      -24.700      84.412     105.876
  H      -30.723      85.975     111.197
  H      -23.905      83.733     108.514
  H      -24.031      88.191     110.957
  H      -25.646      86.553     110.045
  H      -28.426      85.265     112.028
  H      -29.280      87.504     110.596
  H      -27.615      87.080     108.846
  H      -28.729      84.196     108.923
  H      -24.702      89.868     114.198
  H      -26.436      83.590     108.151
  H      -23.636      89.824     112.830
  H      -27.354      84.549     106.961
  P      -29.421      87.993     107.194
  C      -29.924      90.416     108.008
  O      -30.059      89.019     108.246
  O      -30.566      87.830     106.092
  O      -28.119      88.423     106.591
  H      -30.359      88.351     105.292
  H      -30.401      90.960     108.796
  H      -30.384      90.665     107.074
  H      -28.886      90.673     107.974

 6  7  8  9  10  11  12  13  14  15  16  26  30  31  32  33  35 0
 6-311+G(2d,p)
 ****
 37  38 0
 6-311+G(2d,p)
 ****
 1  2  3  4  5  17  18  19  20  21  22  23  24  25 0
 3-21G
 ****
 27  28  29  34  36  39  40  41  42  43  44  45  46 0
 3-21G
 ****


