%nproc=1
%NoSave
%Mem=1900MB
#P OB98/GEN NMR

erre ene a

0 1
  C      175.909     653.011    -108.857
  O      177.095     652.368    -109.336
  P      177.348     652.416    -110.929
  C      179.848     651.798    -110.532
  O      178.641     651.524    -111.239
  C      180.504     650.506    -110.061
  O      179.682     649.827    -109.090
  C      180.737     649.483    -111.173
  O      181.900     649.792    -111.931
  C      180.942     648.215    -110.359
  O      182.319     648.148    -109.902
  C      179.989     648.420    -109.160
  N      177.849     643.833    -109.185
  C      179.162     644.188    -109.019
  N      180.036     643.161    -108.777
  N      179.596     645.418    -109.049
  C      178.610     646.327    -109.262
  C      177.265     646.087    -109.454
  C      176.813     644.728    -109.432
  O      175.654     644.343    -109.614
  N      176.575     647.259    -109.625
  C      177.486     648.206    -109.517
  N      178.752     647.694    -109.306
  O      177.876     653.913    -111.164
  O      176.128     652.115    -111.745
  H      182.879     647.980    -110.692
  H      177.665     654.214    -112.069
  H      177.569     642.857    -109.143
  H      177.304     649.266    -109.572
  H      180.464     648.135    -108.216
  H      180.756     647.299    -110.936
  H      179.765     642.207    -108.660
  H      179.848     649.377    -111.792
  H      181.001     643.423    -108.609
  H      181.464     650.769    -109.589
  H      179.638     652.434    -109.681
  H      180.513     652.372    -111.194
  P      181.753     649.734    -113.539
  C      182.769     652.130    -113.632
  O      182.819     650.793    -114.081
  O      180.342     650.445    -113.792
  O      181.815     648.371    -114.113
  H      179.938     650.109    -114.600
  H      182.585     652.171    -112.549
  H      181.954     652.649    -114.150
  H      183.715     652.626    -113.849
  H      175.854     652.911    -107.793
  H      175.050     652.554    -109.303
  H      175.936     654.049    -109.117

 3  4  5  6  7  8  9  10  11  12  23  26  30  31  33  0
 6-311+G(2d,p)
 ****
 35  36  37  38 0
 6-311+G(2d,p)
 ****
 1  2  13  14  15  16  17  18  19  20  21  22  24  25  27  28  29 0
 3-21G
 ****
 32  34  39  40  41  42  43  44  45  46  47  48  49 0
 3-21G
 ****


