%nproc=1
%NoSave
%Mem=1900MB
#P OB98/GEN NMR

erre ene a

0 1
  C       16.368     -40.918      -1.691
  O       15.293     -41.822      -1.853
  H       17.296     -41.464      -1.502
  H       16.484     -40.339      -2.612
  H       16.164     -40.231      -0.864
  P       14.978     -42.798      -0.618
  C       15.905     -44.875      -1.882
  O       16.024     -44.008      -0.762
  C       16.990     -45.945      -1.807
  O       18.291     -45.325      -1.694
  C       16.863     -46.867      -0.600
  O       15.927     -47.910      -0.807
  C       18.280     -47.407      -0.507
  O       18.484     -48.412      -1.516
  C       19.111     -46.154      -0.825
  N       22.326     -45.853       3.150
  C       22.255     -46.711       2.109
  N       21.383     -46.711       1.081
  C       20.522     -45.687       1.188
  C       20.475     -44.727       2.187
  C       21.431     -44.838       3.211
  N       21.486     -43.983       4.290
  N       19.434     -43.846       1.966
  C       18.878     -44.258       0.844
  N       19.479     -45.386       0.354
  O       13.584     -43.477      -1.016
  O       14.954     -42.158       0.731
  H       19.447     -48.552      -1.588
  H       13.187     -43.918      -0.240
  H       22.996     -47.506       2.104
  H       18.036     -43.783       0.356
  H       20.037     -46.388      -1.363
  H       18.491     -47.874       0.459
  H       16.635     -46.304       0.314
  H       16.975     -46.517      -2.744
  H       16.026     -44.291      -2.800
  H       22.108     -44.233       5.044
  H       20.738     -43.320       4.422
  H       14.915     -45.342      -1.878
  P       15.258     -48.575       0.495
  C       17.013     -50.490       0.539
  O       16.422     -49.397       1.233
  O       14.332     -49.722      -0.126
  O       14.487     -47.625       1.352
  H       13.535     -49.860       0.421
  H       17.767     -50.937       1.153
  H       17.455     -50.138      -0.370
  H       16.261     -51.217       0.312

 6  7  8  9  10  11  12  13  14  15  25  28  32  33  34  35 0
 6-311+G(2d,p)
 ****
 36  39  40 0
 6-311+G(2d,p)
 ****
 1  2  3  4  5  16  17  18  19  20  21  22  23  24 0
 3-21G
 ****
 26  27  29  30  31  37  38  41  42  43  44  45  46  47 0
 3-21G
 ****
 48 0
 3-21G
 ****


