%nproc=1
%NoSave
%Mem=1900MB
#P OB98/GEN NMR

erre ene a

0 1
  C      569.923    -150.735    -186.070
  O      571.289    -150.615    -185.740
  H      569.495    -151.557    -185.493
  H      569.817    -150.959    -187.134
  H      569.376    -149.819    -185.832
  P      572.079    -149.297    -186.189
  C      572.384    -148.558    -183.734
  O      571.893    -148.214    -185.023
  C      571.851    -147.587    -182.674
  O      570.416    -147.471    -182.818
  C      572.117    -148.105    -181.254
  O      572.237    -147.047    -180.311
  C      570.858    -148.899    -180.948
  O      570.619    -149.055    -179.550
  C      569.793    -148.072    -181.669
  N      564.875    -148.021    -183.004
  C      565.642    -147.011    -182.456
  N      565.013    -145.831    -182.241
  N      566.898    -147.154    -182.130
  C      567.377    -148.404    -182.334
  C      566.708    -149.493    -182.848
  C      565.324    -149.317    -183.238
  O      564.595    -150.183    -183.704
  N      567.522    -150.597    -182.898
  C      568.673    -150.181    -182.414
  N      568.643    -148.849    -182.079
  O      571.173    -148.696    -187.366
  O      573.492    -149.513    -186.637
  H      571.457    -149.345    -179.144
  H      571.706    -148.115    -187.939
  H      563.918    -147.854    -183.264
  H      569.557    -150.796    -182.297
  H      569.432    -147.263    -181.023
  H      570.974    -149.902    -181.369
  H      564.010    -145.749    -182.293
  H      573.001    -148.735    -181.196
  H      565.455    -145.200    -181.568
  H      572.270    -146.586    -182.836
  H      573.474    -148.508    -183.786
  H      572.115    -149.584    -183.487
  P      573.699    -146.643    -179.799
  C      574.123    -144.579    -181.403
  O      574.484    -145.865    -180.952
  O      574.464    -148.037    -179.685
  O      573.715    -145.890    -178.504
  H      574.695    -148.228    -178.760
  H      574.795    -144.271    -182.176
  H      574.176    -143.887    -180.588
  H      573.124    -144.603    -181.787

 6  7  8  9  10  11  12  13  14  15  26  29  33  34 0
 6-311+G(2d,p)
 ****
 36  38  39  40  41 0
 6-311+G(2d,p)
 ****
 1  2  3  4  5  16  17  18  19  20  21  22  23  24  25 0
 3-21G
 ****
 27  28  30  31  32  35  37  42  43  44  45  46  47 0
 3-21G
 ****
 48  49 0
 3-21G
 ****


