%nproc=1
%NoSave
%Mem=1900MB
#P OB98/GEN NMR

erre ene a

0 1
  C       38.662     155.870     -70.695
  O       38.649     154.566     -70.150
  H       39.664     156.296     -70.602
  H       38.404     155.810     -71.756
  H       37.934     156.510     -70.190
  P       38.702     154.438     -68.552
  C       41.119     154.357     -67.608
  O       40.056     155.168     -68.085
  C       42.429     155.143     -67.597
  O       42.889     155.295     -68.969
  C       42.318     156.546     -66.980
  O       43.509     156.806     -66.229
  C       42.291     157.458     -68.193
  O       42.757     158.772     -67.905
  C       43.182     156.690     -69.164
  N       45.427     158.083     -73.508
  C       45.906     157.481     -72.399
  N       45.224     157.094     -71.302
  C       43.908     157.324     -71.453
  C       43.274     157.923     -72.527
  C       44.099     158.329     -73.590
  N       43.633     159.005     -74.695
  N       41.918     158.034     -72.285
  C       41.744     157.536     -71.076
  N       42.919     157.096     -70.534
  O       39.024     152.882     -68.342
  O       37.466     154.854     -67.830
  H       42.211     159.151     -67.189
  H       38.192     152.376     -68.322
  H       46.977     157.294     -72.384
  H       40.806     157.499     -70.540
  H       44.251     156.849     -68.972
  H       41.265     157.531     -68.573
  H       41.441     156.679     -66.337
  H       43.186     154.549     -67.071
  H       41.231     153.490     -68.269
  H       44.313     159.352     -75.353
  H       42.665     159.293     -74.719
  H       40.879     154.002     -66.601
  P       43.489     156.450     -64.666
  C       43.384     158.709     -63.376
  O       42.673     157.591     -63.894
  O       45.003     156.706     -64.212
  O       43.055     155.051     -64.371
  H       45.252     156.088     -63.503
  H       42.699     159.374     -62.893
  H       43.875     159.222     -64.177
  H       44.113     158.372     -62.669

 6  7  8  9  10  11  12  13  14  15  25  28  32  33  34  35 0
 6-311+G(2d,p)
 ****
 36  39  40 0
 6-311+G(2d,p)
 ****
 1  2  3  4  5  16  17  18  19  20  21  22  23  24 0
 3-21G
 ****
 26  27  29  30  31  37  38  41  42  43  44  45  46  47 0
 3-21G
 ****
 48 0
 3-21G
 ****


