%nproc=1
%NoSave
%Mem=1900MB
#P OB98/GEN NMR

erre ene a

0 1
  C      137.886    -199.965    -511.264
  O      136.603    -200.343    -511.726
  H      138.379    -199.328    -512.001
  H      137.769    -199.403    -510.334
  H      138.494    -200.852    -511.069
  P      136.546    -201.191    -513.086
  C      135.019    -199.309    -514.031
  O      136.154    -200.144    -514.237
  C      135.277    -197.934    -514.627
  O      136.274    -197.231    -513.852
  C      135.821    -197.959    -516.058
  O      134.791    -198.142    -517.012
  C      136.425    -196.568    -516.154
  O      135.374    -195.598    -516.346
  C      137.047    -196.405    -514.764
  N      140.945    -197.623    -511.672
  C      139.673    -197.233    -511.413
  N      138.698    -196.925    -512.297
  C      139.146    -197.048    -513.555
  C      140.405    -197.426    -513.971
  C      141.336    -197.732    -512.957
  N      142.634    -198.118    -513.216
  N      140.504    -197.409    -515.349
  C      139.299    -197.055    -515.755
  N      138.443    -196.814    -514.709
  O      135.218    -202.075    -512.927
  O      137.752    -202.024    -513.382
  H      134.872    -195.882    -517.132
  H      135.252    -202.842    -513.522
  H      139.412    -197.158    -510.364
  H      138.995    -196.955    -516.793
  H      137.000    -195.375    -514.395
  H      137.117    -196.462    -516.985
  H      136.616    -198.709    -516.174
  H      134.343    -197.355    -514.574
  H      134.838    -199.210    -512.953
  H      143.263    -198.134    -512.429
  H      142.978    -198.053    -514.167
  H      134.141    -199.773    -514.500
  P      134.772    -199.528    -517.827
  C      134.744    -198.363    -520.157
  O      135.445    -199.210    -519.244
  O      133.225    -199.724    -518.182
  O      135.335    -200.694    -517.083
  H      133.009    -200.670    -518.296
  H      135.320    -198.248    -521.051
  H      134.589    -197.405    -519.707
  H      133.798    -198.802    -520.396

 6  7  8  9  10  11  12  13  14  15  25  28  32  33  34  35 0
 6-311+G(2d,p)
 ****
 36  39  40 0
 6-311+G(2d,p)
 ****
 1  2  3  4  5  16  17  18  19  20  21  22  23  24 0
 3-21G
 ****
 26  27  29  30  31  37  38  41  42  43  44  45  46  47 0
 3-21G
 ****
 48 0
 3-21G
 ****


