%nproc=1
%NoSave
%Mem=1900MB
#P OB98/GEN NMR

erre ene a

0 1
  C     -825.344     901.999     127.638
  O     -824.767     902.991     126.799
  H     -826.291     902.380     128.026
  H     -824.685     901.770     128.481
  H     -825.531     901.090     127.063
  P     -823.234     902.794     126.342
  C     -824.040     902.330     123.932
  O     -823.294     901.831     125.045
  C     -823.121     902.630     122.739
  O     -822.565     901.404     122.202
  C     -823.840     903.285     121.560
  O     -824.303     904.591     121.800
  C     -822.841     903.036     120.433
  O     -821.794     904.011     120.410
  C     -822.268     901.638     120.814
  N     -822.789     900.578     119.952
  C     -822.198     900.462     118.709
  O     -821.306     901.215     118.288
  N     -822.695     899.468     117.902
  C     -823.723     898.639     118.209
  O     -824.128     897.764     117.442
  C     -824.334     898.821     119.531
  C     -823.845     899.773     120.346
  O     -822.290     902.319     127.410
  O     -822.841     904.210     125.716
  H     -822.208     904.876     120.281
  H     -821.855     904.299     125.617
  H     -822.264     899.363     117.001
  H     -825.162     898.179     119.815
  H     -824.283     899.937     121.313
  H     -821.173     901.649     120.729
  H     -823.329     903.061     119.443
  H     -824.723     902.670     121.316
  H     -822.297     903.243     123.094
  H     -824.541     903.252     124.241
  H     -824.797     901.587     123.648
  P     -825.555     905.221     121.068
  C     -827.257     904.191     122.780
  O     -826.862     904.350     121.412
  O     -825.371     905.640     119.649
  O     -825.819     906.553     121.951
  H     -826.137     907.239     121.345
  H     -828.139     903.588     122.829
  H     -827.457     905.151     123.207
  H     -826.469     903.715     123.326

 6  7  8  9  10  11  12  13  14  15  16  26  31  32  33  34  35 0
 6-311+G(2d,p)
 ****
 36  37 0
 6-311+G(2d,p)
 ****
 1  2  3  4  5  17  18  19  20  21  22  23  24  25 0
 3-21G
 ****
 27  28  29  30  38  39  40  41  42  43  44  45 0
 3-21G
 ****


