%nproc=1
%NoSave
%Mem=1900MB
#P OB98/GEN NMR

erre ene a

0 1
  C     -190.195    -148.787    -319.936
  O     -191.567    -148.470    -320.047
  H     -190.094    -149.868    -319.804
  H     -189.759    -148.285    -319.069
  H     -189.665    -148.491    -320.845
  P     -191.943    -146.917    -320.189
  C     -192.018    -145.048    -318.385
  O     -191.329    -146.175    -318.906
  C     -191.407    -144.644    -317.047
  O     -191.766    -145.611    -316.034
  C     -189.885    -144.602    -317.046
  O     -189.379    -143.422    -317.648
  C     -189.596    -144.671    -315.554
  O     -189.681    -143.375    -314.941
  C     -190.718    -145.602    -315.041
  N     -190.228    -146.946    -314.748
  C     -189.854    -147.176    -313.426
  O     -189.925    -146.317    -312.547
  N     -189.360    -148.421    -313.154
  C     -189.168    -149.425    -314.061
  O     -188.652    -150.494    -313.766
  C     -189.592    -149.125    -315.440
  C     -190.087    -147.915    -315.719
  O     -193.523    -146.899    -319.922
  O     -191.585    -146.298    -321.500
  H     -194.001    -146.811    -320.766
  H     -189.028    -142.813    -315.402
  H     -189.076    -148.605    -312.204
  H     -189.463    -149.902    -316.185
  H     -190.388    -147.670    -316.733
  H     -191.161    -145.196    -314.122
  H     -188.592    -145.051    -315.356
  H     -189.480    -145.501    -317.526
  H     -191.822    -143.669    -316.753
  H     -193.072    -145.300    -318.237
  H     -191.951    -144.226    -319.108
  P     -187.823    -143.366    -318.034
  C     -185.678    -142.421    -316.844
  O     -187.075    -142.663    -316.802
  O     -187.830    -142.251    -319.179
  O     -187.257    -144.686    -318.440
  H     -188.474    -141.543    -319.017
  H     -185.370    -141.948    -315.935
  H     -185.451    -141.783    -317.672
  H     -185.158    -143.350    -316.956

 6  7  8  9  10  11  12  13  14  15  16  27  31  32  33  34  35 0
 6-311+G(2d,p)
 ****
 36  37 0
 6-311+G(2d,p)
 ****
 1  2  3  4  5  17  18  19  20  21  22  23  24  25 0
 3-21G
 ****
 26  28  29  30  38  39  40  41  42  43  44  45 0
 3-21G
 ****


