%nproc=1
%NoSave
%Mem=1900MB
#P OB98/GEN NMR

erre ene a

0 1
  C     -679.509     -54.548    -631.861
  O     -678.910     -53.277    -632.043
  P     -677.558     -52.894    -631.283
  C     -675.736     -53.952    -632.744
  O     -676.497     -54.076    -631.549
  C     -674.343     -54.555    -632.576
  O     -673.683     -53.927    -631.438
  C     -674.326     -56.075    -632.329
  O     -673.139     -56.580    -632.956
  C     -674.174     -56.172    -630.821
  O     -673.671     -57.426    -630.390
  C     -673.247     -54.987    -630.560
  N     -672.670     -56.384    -625.678
  C     -672.613     -57.090    -626.826
  N     -672.810     -56.651    -628.086
  C     -673.070     -55.335    -628.098
  C     -673.194     -54.487    -627.004
  C     -672.959     -55.062    -625.742
  N     -672.980     -54.347    -624.562
  N     -673.536     -53.216    -627.419
  C     -673.622     -53.296    -628.732
  N     -673.289     -54.538    -629.188
  O     -677.720     -52.521    -629.847
  O     -676.964     -51.677    -632.135
  H     -673.476     -57.364    -629.436
  H     -677.089     -50.839    -631.647
  H     -672.383     -58.148    -626.724
  H     -673.919     -52.492    -629.389
  H     -672.206     -55.220    -630.807
  H     -675.159     -56.013    -630.347
  H     -675.208     -56.593    -632.704
  H     -673.752     -54.307    -633.468
  H     -675.641     -52.887    -632.975
  H     -672.665     -54.826    -623.732
  H     -672.925     -53.330    -624.602
  H     -676.261     -54.441    -633.568
  P     -673.255     -57.706    -634.093
  C     -673.149     -55.996    -635.993
  O     -673.924     -57.003    -635.364
  O     -673.889     -58.988    -633.658
  O     -671.735     -57.923    -634.554
  H     -671.658     -58.768    -635.029
  H     -673.245     -55.060    -635.434
  H     -673.519     -55.843    -637.010
  H     -672.093     -56.280    -636.040
  H     -680.399     -54.610    -632.451
  H     -679.755     -54.682    -630.828
  H     -678.825     -55.312    -632.166

 3  4  5  6  7  8  9  10  11  12  22  25  29  30  31  32 0
 6-311+G(2d,p)
 ****
 33  36  37 0
 6-311+G(2d,p)
 ****
 1  2  13  14  15  16  17  18  19  20  21  23  24  26 0
 3-21G
 ****
 27  28  34  35  38  39  40  41  42  43  44  45  46  47  48 0
 3-21G
 ****


