%nproc=1
%NoSave
%Mem=1900MB
#P OB98/GEN NMR

erre ene a

0 1
  C       61.828    -218.997      26.362
  O       61.902    -220.391      26.119
  P       60.695    -221.185      25.427
  C       58.328    -221.885      26.162
  O       59.456    -221.072      26.452
  C       57.021    -221.193      26.563
  O       57.010    -219.836      26.027
  C       55.747    -221.891      26.080
  O       54.753    -221.672      27.090
  C       55.402    -221.117      24.816
  O       54.049    -221.280      24.419
  C       55.807    -219.689      25.234
  N       56.005    -218.820      24.084
  C       54.862    -218.210      23.557
  O       53.745    -218.488      24.010
  N       54.992    -217.355      22.491
  C       56.161    -217.199      21.934
  N       56.238    -216.333      20.887
  C       57.371    -217.918      22.383
  C       57.225    -218.694      23.460
  O       61.020    -222.574      24.981
  O       60.240    -220.225      24.232
  H       53.902    -220.760      23.596
  H       60.872    -220.292      23.472
  H       58.312    -217.803      21.859
  H       58.058    -219.260      23.866
  H       55.034    -219.249      25.889
  H       56.039    -221.462      23.988
  H       55.880    -222.961      25.892
  H       57.008    -221.104      27.661
  H       55.389    -215.849      20.626
  H       58.420    -222.809      26.740
  H       57.111    -216.083      20.441
  H       58.315    -222.147      25.103
  P       53.409    -222.545      27.148
  C       51.087    -222.436      26.059
  O       52.423    -221.958      26.029
  O       52.802    -222.686      28.508
  O       53.840    -223.969      26.544
  H       53.158    -224.637      26.772
  H       50.457    -221.771      25.459
  H       50.705    -222.453      27.089
  H       51.056    -223.447      25.643
  H       62.733    -218.668      26.828
  H       60.999    -218.791      27.007
  H       61.696    -218.480      25.435

 3  4  5  6  7  8  9  10  11  12  13  23  27  28  29  30  32 0
 6-311+G(2d,p)
 ****
 34  35 0
 6-311+G(2d,p)
 ****
 1  2  14  15  16  17  18  19  20  21  22  24  25  26 0
 3-21G
 ****
 31  33  36  37  38  39  40  41  42  43  44  45  46 0
 3-21G
 ****


