%nproc=1
%NoSave
%Mem=1900MB
#P OB98/GEN NMR

erre ene a

0 1
  C     -427.924    -558.495    -302.042
  O     -427.003    -558.546    -303.110
  H     -427.460    -558.947    -301.159
  H     -428.831    -559.056    -302.290
  H     -428.179    -557.456    -301.815
  P     -427.510    -557.982    -304.524
  C     -425.842    -556.119    -305.145
  O     -426.169    -557.500    -305.266
  C     -425.144    -555.855    -303.810
  O     -423.918    -556.634    -303.764
  C     -424.767    -554.383    -303.595
  O     -424.922    -554.060    -302.211
  C     -423.295    -554.351    -303.959
  O     -422.613    -553.251    -303.354
  C     -422.838    -555.730    -303.475
  N     -417.832    -556.406    -302.849
  C     -418.826    -556.138    -301.974
  N     -420.145    -555.998    -302.226
  C     -420.402    -556.215    -303.528
  C     -419.501    -556.498    -304.537
  C     -418.146    -556.578    -304.155
  N     -417.121    -556.815    -305.042
  N     -420.146    -556.604    -305.749
  C     -421.427    -556.408    -305.475
  N     -421.622    -556.150    -304.149
  O     -428.600    -556.966    -304.457
  O     -427.874    -559.328    -305.310
  H     -423.021    -552.420    -303.674
  H     -427.168    -559.997    -305.214
  H     -418.521    -556.016    -300.940
  H     -422.236    -556.425    -306.201
  H     -422.639    -555.752    -302.396
  H     -423.174    -554.262    -305.044
  H     -425.354    -553.700    -304.202
  H     -425.790    -556.224    -302.999
  H     -426.745    -555.507    -305.219
  H     -416.183    -556.862    -304.679
  H     -417.338    -556.955    -306.016
  H     -425.177    -555.858    -305.978
  P     -426.068    -553.033    -301.777
  C     -426.210    -553.504    -299.245
  O     -425.807    -552.585    -300.250
  O     -427.466    -553.453    -302.076
  O     -425.678    -551.706    -302.589
  H     -426.499    -551.297    -302.949
  H     -425.987    -553.098    -298.280
  H     -425.684    -554.427    -299.374
  H     -427.263    -553.679    -299.323

 6  7  8  9  10  11  12  13  14  15  25  28  32  33  34  35 0
 6-311+G(2d,p)
 ****
 36  39  40 0
 6-311+G(2d,p)
 ****
 1  2  3  4  5  16  17  18  19  20  21  22  23  24 0
 3-21G
 ****
 26  27  29  30  31  37  38  41  42  43  44  45  46  47 0
 3-21G
 ****
 48 0
 3-21G
 ****


