%nproc=1
%NoSave
%Mem=1900MB
#P OB98/GEN NMR

erre ene a

0 1
  C     -353.731     346.964    -188.641
  O     -352.794     345.884    -188.751
  P     -353.286     344.602    -189.594
  C     -353.855     342.964    -187.651
  O     -354.353     343.800    -188.697
  C     -354.972     342.505    -186.711
  O     -355.854     341.599    -187.417
  C     -354.490     341.768    -185.455
  O     -355.333     342.132    -184.352
  C     -354.763     340.310    -185.779
  O     -354.879     339.511    -184.601
  C     -356.049     340.448    -186.590
  N     -359.261     336.602    -187.310
  C     -359.359     337.686    -186.456
  N     -360.454     337.737    -185.669
  N     -358.460     338.633    -186.382
  C     -357.433     338.469    -187.255
  C     -357.229     337.446    -188.153
  C     -358.213     336.382    -188.192
  O     -358.158     335.369    -188.892
  N     -356.069     337.629    -188.863
  C     -355.566     338.748    -188.386
  N     -356.353     339.293    -187.407
  O     -351.993     343.656    -189.602
  O     -353.731     344.927    -190.978
  H     -354.584     338.611    -184.836
  H     -351.742     343.445    -190.521
  H     -359.968     335.893    -187.314
  H     -354.632     339.195    -188.698
  H     -356.910     340.639    -185.936
  H     -353.940     339.909    -186.386
  H     -361.215     337.077    -185.721
  H     -353.440     341.949    -185.197
  H     -360.566     338.548    -185.070
  H     -355.564     343.380    -186.431
  H     -353.101     343.513    -187.078
  H     -353.361     342.098    -188.105
  P     -354.675     343.055    -183.221
  C     -353.331     341.275    -181.878
  O     -353.302     342.339    -182.814
  O     -355.622     342.819    -181.950
  O     -354.576     344.498    -183.592
  H     -355.602     343.601    -181.362
  H     -354.353     340.931    -181.681
  H     -352.884     341.611    -180.941
  H     -352.748     340.443    -182.272
  H     -353.298     347.754    -188.064
  H     -354.621     346.616    -188.159
  H     -353.973     347.327    -189.618

 3  4  5  6  7  8  9  10  11  12  23  26  30  31  33  0
 6-311+G(2d,p)
 ****
 35  36  37  38 0
 6-311+G(2d,p)
 ****
 1  2  13  14  15  16  17  18  19  20  21  22  24  25  27  28  29 0
 3-21G
 ****
 32  34  39  40  41  42  43  44  45  46  47  48  49 0
 3-21G
 ****


