%nproc=1
%NoSave
%Mem=1900MB
#P OB98/GEN NMR

erre ene a

0 1
  C     -251.350       1.577     114.055
  O     -250.800       0.878     112.934
  P     -249.271       0.400     113.038
  C     -249.592      -2.164     113.442
  O     -249.253      -1.129     112.536
  C     -249.712      -3.511     112.713
  O     -250.903      -3.508     111.868
  C     -248.511      -3.856     111.822
  O     -248.309      -5.276     111.928
  C     -249.001      -3.494     110.432
  O     -248.275      -4.177     109.417
  C     -250.480      -3.890     110.543
  N     -251.307      -3.264     109.514
  C     -251.092      -3.670     108.199
  O     -250.199      -4.455     107.878
  N     -251.911      -3.106     107.260
  C     -252.845      -2.134     107.485
  O     -253.551      -1.667     106.605
  C     -252.948      -1.660     108.877
  C     -252.183      -2.239     109.810
  O     -249.075       0.304     114.619
  O     -248.324       1.316     112.335
  H     -249.867      -0.022     115.090
  H     -247.342      -3.869     109.433
  H     -251.793      -3.409     106.303
  H     -253.635      -0.851     109.085
  H     -252.220      -1.899     110.838
  H     -250.591      -4.977     110.462
  H     -248.898      -2.416     110.265
  H     -247.595      -3.331     112.115
  H     -249.851      -4.294     113.470
  H     -250.552      -1.941     113.923
  H     -248.837      -2.215     114.239
  P     -246.797      -5.829     111.919
  C     -245.795      -6.095     114.326
  O     -246.582      -6.638     113.284
  O     -245.997      -4.462     112.177
  O     -246.380      -6.513     110.655
  H     -246.367      -3.936     112.907
  H     -245.970      -6.673     115.237
  H     -246.064      -5.054     114.521
  H     -244.736      -6.158     114.062
  H     -252.368       1.834     113.850
  H     -250.786       2.469     114.231
  H     -251.307       0.951     114.922

 3  4  5  6  7  8  9  10  11  12  13  24  28  29  30  31  32 0
 6-311+G(2d,p)
 ****
 33  34 0
 6-311+G(2d,p)
 ****
 1  2  14  15  16  17  18  19  20  21  22  23  25  26  27 0
 3-21G
 ****
 35  36  37  38  39  40  41  42  43  44  45 0
 3-21G
 ****


