%nproc=1
%NoSave
%Mem=1900MB
#P OB98/GEN NMR

erre ene a

0 1
  C      -19.477    -490.389     212.209
  O      -20.157    -489.481     211.356
  P      -21.592    -489.907     210.779
  C      -22.703    -487.811     211.867
  O      -22.692    -489.224     211.733
  C      -23.825    -487.193     211.026
  O      -25.084    -487.809     211.419
  C      -24.003    -485.676     211.188
  O      -24.456    -485.173     209.927
  C      -25.114    -485.561     212.217
  O      -25.771    -484.296     212.176
  C      -25.985    -486.748     211.821
  N      -30.286    -489.106     213.087
  C      -29.822    -488.725     211.842
  N      -30.587    -489.071     210.777
  N      -28.703    -488.060     211.649
  C      -28.045    -487.796     212.810
  C      -28.420    -488.080     214.098
  C      -29.633    -488.847     214.291
  O      -30.042    -489.276     215.364
  N      -27.532    -487.568     215.011
  C      -26.572    -487.041     214.275
  N      -26.816    -487.193     212.926
  O      -21.678    -491.463     211.152
  O      -21.814    -489.654     209.318
  H      -26.445    -484.290     212.892
  H      -21.383    -492.019     210.416
  H      -31.143    -489.633     213.166
  H      -25.694    -486.550     214.639
  H      -26.650    -486.525     210.973
  H      -24.694    -485.691     213.221
  H      -31.434    -489.612     210.853
  H      -23.084    -485.166     211.489
  H      -30.241    -488.838     209.851
  H      -23.651    -487.454     209.974
  H      -21.747    -487.413     211.510
  H      -22.821    -487.540     212.924
  P      -24.257    -483.607     209.628
  C      -21.985    -483.864     208.397
  O      -22.680    -483.328     209.510
  O      -24.649    -482.922     211.021
  O      -25.101    -483.069     208.517
  H      -25.053    -482.044     210.857
  H      -21.064    -483.287     208.240
  H      -22.584    -483.831     207.488
  H      -21.713    -484.905     208.607
  H      -18.542    -489.965     212.509
  H      -19.302    -491.306     211.686
  H      -20.075    -490.581     213.075

 3  4  5  6  7  8  9  10  11  12  23  26  30  31 0
 6-311+G(2d,p)
 ****
 33  35  36  37  38 0
 6-311+G(2d,p)
 ****
 1  2  13  14  15  16  17  18  19  20  21  22  24  25 0
 3-21G
 ****
 27  28  29  32  34  39  40  41  42  43  44  45  46  47  48  49 0
 3-21G
 ****


