%nproc=1
%NoSave
%Mem=1900MB
#P OB98/GEN NMR

erre ene a

0 1
  C     -220.772    -517.267    -416.987
  O     -221.139    -516.208    -417.848
  H     -221.656    -517.592    -416.434
  H     -220.017    -516.924    -416.276
  H     -220.383    -518.112    -417.566
  P     -219.998    -515.638    -418.823
  C     -220.375    -513.072    -418.687
  O     -220.576    -514.265    -419.437
  C     -221.619    -512.183    -418.754
  O     -222.560    -512.601    -417.721
  C     -221.333    -510.691    -418.532
  O     -222.234    -509.936    -419.355
  C     -221.736    -510.481    -417.076
  O     -222.027    -509.113    -416.776
  C     -222.935    -511.418    -416.991
  N     -226.273    -510.420    -413.359
  C     -226.215    -509.982    -414.676
  N     -227.202    -509.150    -415.084
  N     -225.276    -510.331    -415.511
  C     -224.374    -511.195    -414.972
  C     -224.318    -511.699    -413.694
  C     -225.354    -511.280    -412.766
  O     -225.443    -511.614    -411.588
  N     -223.229    -512.521    -413.535
  C     -222.636    -512.522    -414.717
  N     -223.290    -511.729    -415.619
  O     -220.054    -516.657    -420.059
  O     -218.631    -515.551    -418.236
  H     -221.176    -508.635    -416.699
  H     -219.404    -517.368    -419.937
  H     -227.013    -510.112    -412.752
  H     -221.730    -513.065    -414.961
  H     -223.829    -511.002    -417.465
  H     -220.929    -510.814    -416.409
  H     -227.977    -508.880    -414.507
  H     -220.299    -510.383    -418.735
  H     -227.205    -508.861    -416.048
  H     -222.113    -512.344    -419.716
  H     -219.519    -512.529    -419.103
  H     -220.157    -513.333    -417.643
  P     -221.707    -509.418    -420.779
  C     -222.308    -506.931    -420.299
  O     -222.491    -508.069    -421.136
  O     -222.347    -510.477    -421.801
  O     -220.216    -509.363    -420.897
  H     -221.779    -510.553    -422.594
  H     -222.896    -506.117    -420.670
  H     -221.275    -506.652    -420.297
  H     -222.616    -507.168    -419.302

 6  7  8  9  10  11  12  13  14  15  26  29  33  34 0
 6-311+G(2d,p)
 ****
 36  38  39  40  41 0
 6-311+G(2d,p)
 ****
 1  2  3  4  5  16  17  18  19  20  21  22  23  24  25 0
 3-21G
 ****
 27  28  30  31  32  35  37  42  43  44  45  46  47 0
 3-21G
 ****
 48  49 0
 3-21G
 ****


