%nproc=1
%NoSave
%Mem=1900MB
#P OB98/GEN NMR

erre ene a

0 1
  C       70.674     -20.950     -20.188
  O       69.869     -20.466     -21.250
  P       70.471     -19.283     -22.156
  C       68.697     -17.521     -21.453
  O       70.066     -17.909     -21.434
  C       68.547     -16.028     -21.751
  O       68.842     -15.277     -20.549
  C       69.462     -15.518     -22.865
  O       68.741     -14.536     -23.609
  C       70.589     -14.837     -22.113
  O       71.234     -13.847     -22.911
  C       69.844     -14.293     -20.883
  N       70.740     -14.041     -19.761
  C       71.176     -12.725     -19.585
  O       70.865     -11.858     -20.402
  N       71.992     -12.434     -18.519
  C       72.423     -13.394     -17.762
  N       73.227     -13.056     -16.718
  C       72.087     -14.813     -17.989
  C       71.234     -15.059     -18.981
  O       69.531     -19.311     -23.450
  O       71.916     -19.437     -22.501
  H       70.570     -13.159     -23.139
  H       70.028     -19.044     -24.246
  H       72.504     -15.578     -17.350
  H       70.913     -16.068     -19.206
  H       69.322     -13.360     -21.130
  H       71.338     -15.579     -21.811
  H       69.801     -16.314     -23.535
  H       67.497     -15.834     -22.005
  H       73.455     -12.078     -16.593
  H       68.257     -17.718     -20.472
  H       73.612     -13.735     -16.076
  H       68.161     -18.120     -22.194
  P       68.943     -14.509     -25.200
  C       70.365     -12.384     -24.976
  O       70.321     -13.723     -25.430
  O       67.866     -13.403     -25.640
  O       68.753     -15.779     -25.959
  H       67.844     -13.337     -26.612
  H       71.392     -12.018     -25.068
  H       70.063     -12.325     -23.927
  H       69.712     -11.760     -25.592
  H       70.153     -21.730     -19.672
  H       70.885     -20.151     -19.508
  H       71.592     -21.334     -20.582

 3  4  5  6  7  8  9  10  11  12  13  21  23  27  28  29  30  32 0
 6-311+G(2d,p)
 ****
 34  35 0
 6-311+G(2d,p)
 ****
 1  2  14  15  16  17  18  19  20  22  24  25  26 0
 3-21G
 ****
 31  33  36  37  38  39  40  41  42  43  44  45  46 0
 3-21G
 ****


