%nproc=1
%NoSave
%Mem=1900MB
#P OB98/GEN NMR

erre ene a

0 1
  C      -57.478    -891.960    -563.047
  O      -58.461    -892.360    -563.987
  P      -58.210    -892.270    -565.577
  C      -58.088    -894.720    -566.414
  O      -57.343    -893.540    -566.045
  C      -57.894    -895.850    -565.360
  O      -58.465    -895.470    -564.086
  C      -58.568    -897.170    -565.720
  O      -57.832    -897.860    -566.732
  C      -58.589    -897.870    -564.366
  O      -57.324    -898.480    -564.065
  C      -58.855    -896.680    -563.404
  N      -60.239    -896.610    -562.974
  C      -60.715    -897.640    -562.171
  O      -59.967    -898.610    -561.919
  N      -61.989    -897.610    -561.703
  C      -62.775    -896.650    -562.059
  N      -64.054    -896.650    -561.566
  C      -62.351    -895.550    -562.949
  C      -61.081    -895.580    -563.383
  O      -57.649    -890.970    -566.036
  O      -59.659    -892.530    -566.240
  H      -57.463    -899.120    -563.354
  H      -59.703    -892.060    -567.082
  H      -63.042    -894.760    -563.289
  H      -60.698    -894.850    -564.048
  H      -58.215    -896.760    -562.513
  H      -59.342    -898.630    -564.325
  H      -59.581    -896.980    -566.066
  H      -56.814    -895.990    -565.220
  H      -64.299    -897.400    -560.927
  H      -57.743    -895.090    -567.391
  H      -64.735    -895.930    -561.767
  H      -59.155    -894.470    -566.469
  P      -58.550    -898.290    -568.111
  C      -57.279    -896.880    -569.805
  O      -58.492    -897.050    -569.106
  O      -59.898    -898.920    -567.943
  O      -57.509    -899.330    -568.745
  H      -58.007    -900.000    -569.270
  H      -57.467    -896.290    -570.723
  H      -56.812    -897.840    -570.094
  H      -56.540    -896.330    -569.166
  H      -57.853    -892.104    -562.055
  H      -57.244    -890.926    -563.193
  H      -56.595    -892.548    -563.183

 3  4  5  6  7  8  9  10  11  12  13  23  27  28  29  30  32 0
 6-311+G(2d,p)
 ****
 34  35 0
 6-311+G(2d,p)
 ****
 1  2  14  15  16  17  18  19  20  21  22  24  25  26 0
 3-21G
 ****
 31  33  36  37  38  39  40  41  42  43  44  45  46 0
 3-21G
 ****


