%nproc=1
%NoSave
%Mem=1900MB
#P OB98/GEN NMR

erre ene a

0 1
  C     -300.864     247.778     152.092
  O     -299.447     247.594     151.989
  P     -298.527     248.570     152.873
  C     -296.338     247.662     151.809
  O     -297.148     248.796     152.096
  C     -295.129     248.069     150.973
  O     -295.520     248.582     149.678
  C     -294.305     249.186     151.606
  O     -293.524     248.694     152.683
  C     -293.493     249.664     150.403
  O     -292.389     248.786     150.158
  C     -294.520     249.544     149.262
  N     -296.217     252.491     145.435
  C     -295.607     251.279     145.446
  N     -295.184     250.564     146.506
  C     -295.454     251.206     147.657
  C     -296.071     252.439     147.805
  C     -296.461     253.096     146.627
  N     -297.061     254.334     146.618
  N     -296.175     252.777     149.139
  C     -295.609     251.773     149.783
  N     -295.166     250.797     148.930
  O     -298.120     247.657     154.125
  O     -299.225     249.819     153.304
  H     -292.082     248.944     149.241
  H     -298.587     247.958     154.927
  H     -295.438     250.835     144.471
  H     -295.491     251.712     150.860
  H     -294.064     249.163     148.339
  H     -293.095     250.672     150.533
  H     -294.964     249.992     151.960
  H     -294.500     247.185     150.823
  H     -296.920     246.905     151.271
  H     -297.240     254.764     145.721
  H     -297.172     254.833     147.487
  H     -296.028     247.200     152.755
  P     -294.169     248.736     154.152
  C     -292.306     247.037     154.641
  O     -292.990     248.194     155.098
  O     -295.178     247.502     154.102
  O     -294.760     250.047     154.545
  H     -294.762     246.708     153.702
  H     -291.513     246.795     155.356
  H     -291.859     247.221     153.666
  H     -293.000     246.193     154.589
  H     -301.362     247.073     151.460
  H     -301.118     248.772     151.787
  H     -301.171     247.627     153.106

 3  4  5  6  7  8  9  10  11  12  22  25  29  30  31  32 0
 6-311+G(2d,p)
 ****
 33  36  37 0
 6-311+G(2d,p)
 ****
 1  2  13  14  15  16  17  18  19  20  21  23  24  26 0
 3-21G
 ****
 27  28  34  35  38  39  40  41  42  43  44  45  46  47  48 0
 3-21G
 ****


