%nproc=1
%NoSave
%Mem=1900MB
#P OB98/GEN NMR

erre ene a

0 1
  C     -104.902     281.110    -468.835
  O     -106.091     281.166    -468.071
  H     -104.915     280.197    -469.436
  H     -104.030     281.085    -468.174
  H     -104.839     281.974    -469.502
  P     -106.277     282.449    -467.124
  C     -107.777     283.690    -468.853
  O     -106.571     283.689    -468.099
  C     -108.620     284.900    -468.475
  O     -109.333     284.640    -467.241
  C     -107.806     286.161    -468.210
  O     -107.398     286.802    -469.407
  C     -108.792     286.983    -467.393
  O     -109.719     287.685    -468.233
  C     -109.521     285.909    -466.575
  N     -110.826     286.437    -461.666
  C     -111.552     286.488    -462.807
  N     -111.133     286.325    -464.078
  C     -109.815     286.056    -464.110
  C     -108.948     285.967    -463.035
  C     -109.502     286.168    -461.759
  N     -108.759     286.138    -460.598
  N     -107.660     285.713    -463.468
  C     -107.751     285.642    -464.779
  N     -109.033     285.837    -465.210
  O     -104.794     282.722    -466.590
  O     -107.250     282.274    -466.006
  H     -109.190     288.329    -468.745
  H     -104.700     282.359    -465.689
  H     -112.612     286.697    -462.679
  H     -106.921     285.459    -465.452
  H     -110.603     286.091    -466.523
  H     -108.269     287.722    -466.781
  H     -106.938     285.924    -467.585
  H     -109.363     285.072    -469.264
  H     -108.338     282.774    -468.636
  H     -107.528     283.706    -469.919
  H     -109.211     286.360    -459.730
  H     -107.752     286.051    -460.666
  P     -106.181     287.836    -469.321
  C     -104.225     286.106    -469.393
  O     -104.946     287.067    -468.636
  O     -106.643     288.882    -468.205
  O     -105.840     288.512    -470.609
  H     -106.322     289.778    -468.431
  H     -103.442     285.693    -468.792
  H     -103.801     286.576    -470.256
  H     -104.888     285.325    -469.702

 6  7  8  9  10  11  12  13  14  15  25  28  32  33  34  35 0
 6-311+G(2d,p)
 ****
 36  37  40 0
 6-311+G(2d,p)
 ****
 1  2  3  4  5  16  17  18  19  20  21  22  23  24 0
 3-21G
 ****
 26  27  29  30  31  38  39 41  42  43  44  45  46  47  48 0
 3-21G
 ****


