%nproc=1
%NoSave
%Mem=1900MB
#P OB98/GEN NMR

erre ene a

0 1
  C       72.005     285.731    -234.985
  O       70.939     285.801    -235.927
  P       70.768     284.828    -237.180
  C       69.423     286.307    -238.878
  O       69.422     285.233    -237.948
  C       68.007     286.746    -239.293
  O       67.338     285.646    -239.965
  C       67.163     287.078    -238.061
  O       67.256     288.354    -237.461
  C       65.748     286.672    -238.444
  O       64.990     287.763    -238.967
  C       65.966     285.608    -239.523
  N       62.403     282.521    -237.535
  C       62.352     283.882    -237.761
  N       61.228     284.516    -237.361
  N       63.321     284.562    -238.310
  C       64.419     283.821    -238.579
  C       64.598     282.472    -238.386
  C       63.495     281.716    -237.830
  O       63.484     280.508    -237.620
  N       65.855     282.071    -238.760
  C       66.443     283.181    -239.156
  N       65.610     284.273    -239.073
  O       70.976     283.378    -236.905
  O       71.938     285.307    -238.182
  H       64.767     288.357    -238.227
  H       72.233     284.510    -238.667
  H       61.617     282.042    -237.131
  H       67.464     283.247    -239.517
  H       65.352     285.812    -240.408
  H       65.202     286.306    -237.565
  H       60.498     284.073    -236.826
  H       67.466     286.377    -237.270
  H       61.273     285.538    -237.324
  H       68.051     287.561    -240.022
  H       69.991     285.972    -239.751
  H       69.965     287.160    -238.465
  P       67.581     288.657    -235.921
  C       66.060     290.472    -234.946
  O       67.262     290.201    -235.644
  O       69.180     288.613    -235.849
  O       66.978     287.700    -234.949
  H       69.477     288.527    -234.924
  H       65.798     291.523    -235.087
  H       66.207     290.281    -233.879
  H       65.241     289.850    -235.320
  H       71.880     286.496    -234.248
  H       72.938     285.871    -235.491
  H       71.998     284.773    -234.509

 3  4  5  6  7  8  9  10  11  12  23  26  30  31 0
 6-311+G(2d,p)
 ****
 33  35  36  37  38 0
 6-311+G(2d,p)
 ****
 1  2  13  14  15  16  17  18  19  20  21  22  24  25 0
 3-21G
 ****
 27  28  29  32  34  39  40  41  42  43  44  45  46  47  48  49 0
 3-21G
 ****


