%nproc=1
%NoSave
%Mem=1900MB
#P OB98/GEN NMR

erre ene a

0 1
  C       72.240     206.249    -267.515
  O       72.352     206.186    -266.085
  P       71.379     207.076    -265.180
  C       71.121     209.545    -264.434
  O       71.880     208.597    -265.182
  C       72.053     210.577    -263.802
  O       72.857     210.005    -262.736
  C       73.062     211.149    -264.794
  O       72.566     211.986    -265.819
  C       74.119     211.729    -263.871
  O       73.767     213.039    -263.424
  C       74.105     210.727    -262.694
  N       75.246     209.808    -262.713
  C       76.466     210.345    -262.307
  O       76.610     211.521    -261.987
  N       77.530     209.474    -262.311
  C       77.490     208.165    -262.710
  O       78.481     207.441    -262.712
  C       76.183     207.666    -263.158
  C       75.134     208.492    -263.135
  O       71.060     206.511    -263.831
  O       70.040     207.155    -266.078
  H       72.913     212.969    -262.963
  H       69.275     207.055    -265.475
  H       78.416     209.839    -262.006
  H       76.115     206.640    -263.482
  H       74.153     208.148    -263.455
  H       74.125     211.264    -261.738
  H       75.093     211.824    -264.370
  H       73.535     210.295    -265.310
  H       71.440     211.378    -263.359
  H       70.552     209.021    -263.654
  H       70.383     210.012    -265.093
  P       72.270     211.462    -267.303
  C       73.392     209.845    -269.004
  O       73.488     210.521    -267.766
  O       71.767     212.461    -268.297
  O       71.105     210.382    -267.044
  H       70.511     210.374    -267.813
  H       74.295     209.247    -269.141
  H       73.313     210.569    -269.823
  H       72.522     209.179    -269.008
  H       72.961     205.595    -267.958
  H       72.419     207.252    -267.843
  H       71.257     205.947    -267.809

 3  4  5  6  7  8  9  10  11  12  13  23  28  29  30  31  32 0
 6-311+G(2d,p)
 ****
 33  34 0
 6-311+G(2d,p)
 ****
 1  2  14  15  16  17  18  19  20  21  22  24  25  26  27 0
 3-21G
 ****
 35  36  37  38  39  40  41  42  43  44  45 0
 3-21G
 ****


