%nproc=1
%NoSave
%Mem=1900MB
#P OB98/GEN NMR

erre ene a

0 1
  C      110.775    -149.711      72.556
  O      109.541    -150.010      71.897
  P      108.229    -149.231      72.389
  C      106.432    -149.653      74.213
  O      107.783    -149.821      73.813
  C      106.320    -148.743      75.446
  O      106.908    -149.381      76.614
  C      107.026    -147.395      75.276
  O      106.329    -146.420      76.059
  C      108.380    -147.649      75.911
  O      109.042    -146.432      76.252
  C      107.968    -148.528      77.090
  N      112.730    -148.334      78.742
  C      111.914    -147.331      78.258
  N      112.434    -146.085      78.245
  N      110.695    -147.531      77.826
  C      110.299    -148.822      77.934
  C      111.015    -149.905      78.389
  C      112.369    -149.673      78.839
  O      113.142    -150.526      79.265
  N      110.274    -151.058      78.320
  C      109.117    -150.672      77.819
  N      109.070    -149.321      77.602
  O      107.096    -149.771      71.392
  O      108.346    -147.744      72.317
  H      109.748    -146.654      76.897
  H      106.849    -149.070      70.763
  H      113.663    -148.126      79.052
  H      108.286    -151.324      77.593
  H      107.582    -147.939      77.933
  H      109.021    -148.204      75.214
  H      113.344    -145.854      78.610
  H      107.103    -147.043      74.244
  H      111.842    -145.324      77.934
  H      105.259    -148.578      75.663
  H      105.983    -150.625      74.439
  H      105.860    -149.253      73.370
  P      105.732    -145.154      75.279
  C      105.992    -142.589      75.584
  O      106.527    -143.876      75.824
  O      104.269    -144.982      75.904
  O      105.692    -145.300      73.793
  H      103.682    -144.529      75.273
  H      105.533    -142.217      76.504
  H      105.246    -142.598      74.784
  H      106.806    -141.919      75.297
  H      111.560    -150.300      72.128
  H      110.687    -149.937      73.598
  H      111.002    -148.672      72.435

 3  4  5  6  7  8  9  10  11  12  23  26  30  31 0
 6-311+G(2d,p)
 ****
 33  35  36  37  38 0
 6-311+G(2d,p)
 ****
 1  2  13  14  15  16  17  18  19  20  21  22  24  25 0
 3-21G
 ****
 27  28  29  32  34  39  40  41  42  43  44  45  46  47  48  49 0
 3-21G
 ****


