%nproc=1
%NoSave
%Mem=1900MB
#P OB98/GEN NMR

erre ene a

0 1
  C       24.275     288.183    -160.683
  O       24.825     287.186    -159.840
  H       24.765     289.136    -160.468
  H       23.205     288.284    -160.486
  H       24.439     287.927    -161.734
  P       24.408     285.673    -160.158
  C       26.700     285.081    -161.286
  O       25.289     285.187    -161.414
  C       27.150     283.659    -161.616
  O       26.902     283.346    -163.002
  C       28.645     283.422    -161.459
  O       29.047     283.371    -160.106
  C       28.799     282.095    -162.190
  O       28.498     280.982    -161.341
  C       27.750     282.221    -163.324
  N       28.380     282.354    -164.627
  C       29.062     281.215    -165.082
  O       29.084     280.193    -164.396
  N       29.729     281.285    -166.274
  C       29.742     282.395    -166.945
  N       30.449     282.407    -168.106
  C       29.034     283.619    -166.503
  C       28.380     283.525    -165.344
  O       22.944     285.844    -160.782
  O       24.470     284.746    -158.989
  H       29.195     280.964    -160.651
  H       22.892     286.519    -161.478
  H       29.063     284.514    -167.105
  H       27.836     284.375    -164.941
  H       27.100     281.335    -163.344
  H       29.821     281.951    -162.553
  H       29.208     284.186    -162.013
  H       26.570     282.962    -160.993
  H       30.967     281.564    -168.347
  H       27.018     285.355    -160.278
  H       30.593     283.233    -168.669
  H       27.152     285.794    -161.983
  P       30.549     283.719    -159.673
  C       30.087     286.239    -159.398
  O       30.813     285.245    -160.110
  O       31.588     282.757    -160.139
  O       30.446     283.842    -158.077
  H       29.827     284.526    -157.760
  H       30.344     287.207    -159.775
  H       30.333     286.184    -158.358
  H       29.038     286.074    -159.525

 6  7  8  9  10  11  12  13  14  15  16  26  30  31  32  33  35 0
 6-311+G(2d,p)
 ****
 37  38 0
 6-311+G(2d,p)
 ****
 1  2  3  4  5  17  18  19  20  21  22  23  24  25 0
 3-21G
 ****
 27  28  29  34  36  39  40  41  42  43  44  45  46 0
 3-21G
 ****


