%nproc=1
%NoSave
%Mem=1900MB
#P OB98/GEN NMR

erre ene a

0 1
  C       13.683     349.134      18.901
  O       14.258     348.306      17.900
  P       14.400     348.911      16.426
  C       12.651     349.696      14.656
  O       12.952     348.831      15.735
  C       11.371     349.226      13.958
  O       11.581     347.941      13.340
  C       10.194     349.047      14.905
  O        9.591     350.287      15.226
  C        9.286     348.124      14.096
  O        8.489     348.874      13.162
  C       10.311     347.241      13.352
  N       10.432     345.909      13.939
  C        9.739     344.890      13.288
  O        9.042     345.090      12.286
  N        9.841     343.646      13.839
  C       10.506     343.327      14.995
  O       10.514     342.201      15.475
  C       11.194     344.456      15.655
  C       11.125     345.666      15.115
  O       15.258     347.810      15.642
  O       15.033     350.259      16.363
  H        9.114     349.392      12.617
  H       15.849     348.248      14.999
  H        9.367     342.889      13.371
  H       11.736     344.235      16.571
  H       11.612     346.507      15.587
  H       10.020     347.129      12.298
  H        8.594     347.565      14.733
  H       10.520     348.516      15.813
  H       11.119     349.951      13.165
  H       13.484     349.691      13.946
  H       12.528     350.716      15.037
  P        9.137     350.497      16.762
  C        7.506     349.140      18.292
  O        7.931     349.468      16.979
  O        8.448     351.941      16.666
  O       10.276     350.404      17.723
  H        8.020     352.092      15.806
  H        7.583     350.004      18.961
  H        8.117     348.321      18.676
  H        6.466     348.816      18.250
  H       13.652     348.602      19.829
  H       12.689     349.405      18.612
  H       14.275     350.018      19.016

 3  4  5  6  7  8  9  10  11  12  13  23  28  29  30  31  32 0
 6-311+G(2d,p)
 ****
 33  34 0
 6-311+G(2d,p)
 ****
 1  2  14  15  16  17  18  19  20  21  22  24  25  26 0
 3-21G
 ****
 27  35  36  37  38  39  40  41  42  43  44  45 0
 3-21G
 ****


