%nproc=1
%NoSave
%Mem=1900MB
#P OB98/GEN NMR

erre ene a

0 1
  C     -369.957    -661.673    -404.763
  O     -371.004    -660.938    -404.165
  H     -369.734    -662.540    -404.136
  H     -369.057    -661.051    -404.837
  H     -370.252    -662.023    -405.757
  P     -371.469    -659.603    -404.925
  C     -373.740    -658.405    -405.315
  O     -373.070    -659.562    -404.826
  C     -375.231    -658.683    -405.483
  O     -375.471    -659.453    -406.684
  C     -375.863    -659.462    -404.335
  O     -376.195    -658.605    -403.257
  C     -377.082    -660.057    -405.016
  O     -378.156    -659.101    -405.099
  C     -376.538    -660.398    -406.408
  N     -377.835    -665.278    -406.218
  C     -378.617    -664.148    -406.103
  N     -379.929    -664.340    -405.845
  N     -378.148    -662.928    -406.213
  C     -376.819    -662.884    -406.441
  C     -375.940    -663.934    -406.598
  C     -376.470    -665.278    -406.503
  O     -375.853    -666.326    -406.658
  N     -374.660    -663.493    -406.835
  C     -374.759    -662.175    -406.785
  N     -376.043    -661.759    -406.535
  O     -371.211    -659.942    -406.474
  O     -370.763    -658.358    -404.513
  H     -378.918    -659.506    -405.559
  H     -370.987    -659.124    -406.945
  H     -378.253    -666.186    -406.138
  H     -373.938    -661.486    -406.926
  H     -377.296    -660.268    -407.191
  H     -377.472    -660.917    -404.463
  H     -380.256    -665.194    -405.428
  H     -375.192    -660.270    -404.004
  H     -380.498    -663.515    -405.734
  H     -375.734    -657.718    -405.611
  H     -373.309    -658.139    -406.288
  H     -373.587    -657.576    -404.616
  P     -376.172    -659.221    -401.770
  C     -375.863    -658.062    -399.463
  O     -375.488    -658.116    -400.836
  O     -375.056    -660.363    -401.867
  O     -377.483    -659.755    -401.300
  H     -375.143    -660.980    -401.117
  H     -375.323    -657.277    -398.976
  H     -375.635    -658.996    -398.994
  H     -376.913    -657.872    -399.387

 6  7  8  9  10  11  12  13  14  15  26  29  33  34 0
 6-311+G(2d,p)
 ****
 36  38  39  40  41 0
 6-311+G(2d,p)
 ****
 1  2  3  4  5  16  17  18  19  20  21  22  23  24  25 0
 3-21G
 ****
 27  28  30  31  32  35  37  42  43  44  45  46  47 0
 3-21G
 ****
 48  49 0
 3-21G
 ****


