%nproc=1
%NoSave
%Mem=1900MB
#P OB98/GEN NMR

erre ene a

0 1
  C      237.184     400.124    -609.721
  O      237.099     401.009    -608.625
  P      235.836     401.089    -607.647
  C      237.220     400.389    -605.575
  O      236.108     400.115    -606.398
  C      236.902     401.366    -604.433
  O      235.722     400.919    -603.733
  C      238.040     401.378    -603.408
  O      239.190     402.173    -603.612
  C      237.356     401.578    -602.060
  O      237.394     402.938    -601.623
  C      235.915     401.148    -602.324
  N      234.471     399.216    -597.853
  C      234.504     400.535    -598.273
  N      234.304     401.462    -597.293
  N      234.730     400.906    -599.493
  C      234.998     399.871    -600.334
  C      234.991     398.532    -600.055
  C      234.693     398.122    -598.690
  O      234.746     396.975    -598.272
  N      235.396     397.776    -601.122
  C      235.684     398.661    -602.050
  N      235.508     399.948    -601.606
  O      234.486     401.078    -608.296
  O      236.035     402.546    -606.987
  H      238.330     403.201    -601.548
  H      235.152     402.927    -606.827
  H      234.369     398.989    -596.871
  H      236.069     398.426    -603.039
  H      235.213     401.940    -602.033
  H      237.850     400.987    -601.280
  H      234.277     401.214    -596.322
  H      238.439     400.356    -603.371
  H      234.488     402.432    -597.529
  H      236.652     402.353    -604.827
  H      238.020     400.780    -606.207
  H      237.593     399.451    -605.133
  P      240.647     401.937    -602.978
  C      241.828     402.233    -605.225
  O      241.607     401.372    -604.119
  O      240.445     400.670    -602.018
  O      241.180     403.101    -602.208
  H      241.144     400.656    -601.332
  H      242.229     401.663    -606.065
  H      242.553     403.017    -604.951
  H      240.893     402.718    -605.551
  H      238.122     400.261    -610.218
  H      236.386     400.325    -610.405
  H      237.109     399.115    -609.372

 3  4  5  6  7  8  9  10  11  12  23  26  30  31 0
 6-311+G(2d,p)
 ****
 33  35  36  37  38 0
 6-311+G(2d,p)
 ****
 1  2  13  14  15  16  17  18  19  20  21  22  24  25 0
 3-21G
 ****
 27  28  29  32  34  39  40  41  42  43  44  45  46  47  48  49 0
 3-21G
 ****


