%nproc=1
%NoSave
%Mem=1900MB
#P OB98/GEN NMR

erre ene a

0 1
  C      182.093    -397.473    -124.000
  O      180.936    -397.999    -123.384
  H      182.076    -397.679    -125.074
  H      182.114    -396.392    -123.849
  H      182.991    -397.914    -123.553
  P      180.716    -399.588    -123.481
  C      180.008    -401.220    -125.379
  O      180.295    -399.876    -125.003
  C      179.475    -401.249    -126.806
  O      178.078    -400.871    -126.829
  C      180.180    -400.284    -127.759
  O      181.402    -400.806    -128.244
  C      179.141    -400.188    -128.866
  O      179.199    -401.365    -129.691
  C      177.834    -400.158    -128.070
  N      174.003    -396.809    -128.641
  C      174.173    -398.073    -129.096
  N      175.223    -398.896    -128.902
  C      176.169    -398.294    -128.156
  C      176.140    -397.012    -127.636
  C      174.986    -396.253    -127.899
  N      174.812    -394.959    -127.454
  N      177.310    -396.730    -126.953
  C      178.013    -397.845    -127.035
  N      177.375    -398.814    -127.761
  O      179.353    -399.830    -122.674
  O      181.837    -400.428    -122.972
  H      180.079    -401.369    -130.113
  H      179.292    -400.761    -122.391
  H      173.356    -398.471    -129.689
  H      178.986    -397.994    -126.587
  H      177.012    -400.671    -128.586
  H      179.301    -399.329    -129.522
  H      180.313    -399.294    -127.308
  H      179.546    -402.283    -127.175
  H      179.254    -401.627    -124.700
  H      174.042    -394.441    -127.849
  H      175.600    -394.486    -127.032
  H      180.925    -401.818    -125.298
  P      182.603    -399.763    -128.485
  C      183.110    -397.954    -130.284
  O      182.269    -399.027    -129.871
  O      183.834    -400.715    -128.851
  O      182.896    -398.871    -127.328
  H      184.684    -400.289    -128.622
  H      182.762    -397.568    -131.220
  H      184.113    -398.310    -130.395
  H      183.086    -397.178    -129.547

 6  7  8  9  10  11  12  13  14  15  25  28  32  33  34  35 0
 6-311+G(2d,p)
 ****
 36  39  40 0
 6-311+G(2d,p)
 ****
 1  2  3  4  5  16  17  18  19  20  21  22  23  24 0
 3-21G
 ****
 26  27  29  30  31  37  38  41  42  43  44  45  46  47 0
 3-21G
 ****
 48 0
 3-21G
 ****


