%nproc=1
%NoSave
%Mem=1900MB
#P OB98/GEN NMR

erre ene a

0 1
  C      252.762     451.235     107.650
  O      252.116     451.760     106.484
  P      251.624     450.816     105.282
  C      249.132     451.197     105.808
  O      250.171     450.238     105.642
  C      247.759     450.612     105.461
  O      247.540     450.632     104.037
  C      247.560     449.163     105.897
  O      247.276     449.093     107.281
  C      246.421     448.731     104.980
  O      245.158     449.174     105.505
  C      246.755     449.477     103.685
  N      246.431     445.382     100.636
  C      245.532     445.973     101.454
  N      245.696     447.061     102.238
  C      246.935     447.560     102.103
  C      247.961     447.062     101.311
  C      247.671     445.916     100.550
  N      248.594     445.308      99.731
  N      249.099     447.826     101.452
  C      248.764     448.779     102.300
  N      247.469     448.659     102.721
  O      252.615     449.775     104.876
  O      251.332     451.824     104.068
  H      245.034     448.746     106.370
  H      251.463     451.359     103.221
  H      244.549     445.509     101.483
  H      249.419     449.572     102.633
  H      245.851     449.852     103.191
  H      246.362     447.642     104.864
  H      248.455     448.577     105.664
  H      246.996     451.255     105.918
  H      249.342     452.050     105.152
  H      248.319     444.470      99.244
  H      249.535     445.671      99.696
  H      249.137     451.542     106.849
  P      248.441     448.750     108.326
  C      248.798     451.161     109.120
  O      249.366     450.053     108.448
  O      249.172     447.472     108.079
  O      247.684     448.723     109.740
  H      248.143     448.100     110.338
  H      248.132     451.698     108.436
  H      249.604     451.833     109.431
  H      248.239     450.845     110.002
  H      253.002     452.037     108.316
  H      253.660     450.729     107.363
  H      252.106     450.547     108.142

 3  4  5  6  7  8  9  10  11  12  22  25  29  30  31  32 0
 6-311+G(2d,p)
 ****
 33  36  37 0
 6-311+G(2d,p)
 ****
 1  2  13  14  15  16  17  18  19  20  21  23  24  26 0
 3-21G
 ****
 27  28  34  35  38  39  40  41  42  43  44  45  46  47  48 0
 3-21G
 ****


