%nproc=1
%NoSave
%Mem=1900MB
#P OB98/GEN NMR

erre ene a

0 1
  C      229.734    -894.190     765.691
  O      228.703    -893.670     764.873
  P      228.714    -894.090     763.317
  C      226.826    -894.950     761.701
  O      227.281    -894.760     763.023
  C      225.644    -895.960     761.685
  O      226.095    -897.220     762.198
  C      224.476    -895.540     762.560
  O      223.679    -894.540     761.952
  C      223.771    -896.900     762.743
  O      222.981    -897.200     761.579
  C      224.966    -897.860     762.849
  N      225.286    -898.250     764.206
  C      224.363    -899.060     764.874
  O      223.315    -899.430     764.339
  N      224.671    -899.400     766.167
  C      225.759    -898.970     766.883
  O      225.951    -899.280     768.042
  C      226.684    -898.100     766.141
  C      226.409    -897.780     764.871
  O      229.737    -895.310     763.337
  O      229.100    -892.960     762.402
  H      229.742    -895.760     764.214
  H      222.412    -896.420     761.434
  H      224.006    -900.000     766.655
  H      227.563    -897.730     766.683
  H      227.095    -897.140     764.324
  H      224.759    -898.770     762.275
  H      223.108    -896.910     763.621
  H      224.828    -895.200     763.543
  H      225.336    -896.090     760.654
  H      227.636    -895.350     761.084
  H      226.503    -893.990     761.286
  P      222.751    -893.650     762.922
  C      221.956    -891.190     762.645
  O      222.995    -892.130     762.503
  O      223.534    -893.810     764.313
  O      221.325    -894.100     762.959
  H      224.503    -893.750     764.221
  H      222.389    -890.180     762.664
  H      221.380    -891.340     763.575
  H      221.274    -891.260     761.796
  H      229.608    -893.835     766.692
  H      230.683    -893.869     765.315
  H      229.690    -895.259     765.684

 3  4  5  6  7  8  9  10  11  12  13  24  28  29  30  31  32 0
 6-311+G(2d,p)
 ****
 33  34 0
 6-311+G(2d,p)
 ****
 1  2  14  15  16  17  18  19  20  21  22  23  25  26  27 0
 3-21G
 ****
 35  36  37  38  39  40  41  42  43  44  45 0
 3-21G
 ****


