%nproc=1
%NoSave
%Mem=1900MB
#P OB98/GEN NMR

erre ene a

0 1
  C     -343.017      -3.547     108.313
  O     -343.883      -4.337     109.108
  P     -343.379      -5.808     109.506
  C     -344.742      -6.936     107.596
  O     -343.458      -6.677     108.161
  C     -344.830      -8.385     107.126
  O     -343.694      -8.708     106.306
  C     -344.827      -9.405     108.249
  O     -346.097      -9.466     108.869
  C     -344.435     -10.676     107.507
  O     -345.589     -11.320     106.945
  C     -343.505     -10.137     106.393
  N     -342.110     -10.483     106.614
  C     -341.499     -11.240     105.611
  O     -342.146     -11.591     104.622
  N     -340.185     -11.613     105.773
  C     -339.548     -11.265     106.846
  N     -338.247     -11.656     106.953
  C     -340.162     -10.480     107.938
  C     -341.437     -10.133     107.763
  O     -344.585      -6.378     110.392
  O     -342.073      -5.850     110.230
  H     -345.243     -12.072     106.422
  H     -344.263      -7.057     111.018
  H     -339.583     -10.218     108.813
  H     -341.964      -9.560     108.516
  H     -343.805     -10.549     105.419
  H     -343.955     -11.404     108.166
  H     -344.056      -9.157     108.991
  H     -345.737      -8.490     106.511
  H     -337.856     -12.197     106.191
  H     -344.897      -6.273     106.741
  H     -337.659     -11.414     107.738
  H     -345.510      -6.720     108.347
  P     -346.155      -9.344     110.467
  C     -346.246     -11.902     110.636
  O     -345.551     -10.726     111.008
  O     -347.724      -9.522     110.763
  O     -345.606      -8.097     111.074
  H     -347.900      -9.365     111.709
  H     -345.652     -12.767     110.933
  H     -346.397     -11.931     109.553
  H     -347.210     -11.940     111.148
  H     -343.473      -2.598     108.123
  H     -342.831      -4.045     107.385
  H     -342.092      -3.401     108.831

 3  4  5  6  7  8  9  10  11  12  13  21  23  27  28  29  30  32 0
 6-311+G(2d,p)
 ****
 34  35 0
 6-311+G(2d,p)
 ****
 1  2  14  15  16  17  18  19  20  22  24  25  26 0
 3-21G
 ****
 31  33  36  37  38  39  40  41  42  43  44  45  46 0
 3-21G
 ****


