%nproc=1
%NoSave
%Mem=1900MB
#P OB98/GEN NMR

erre ene a

0 1
  C      408.841     -71.270     148.596
  O      409.158     -71.582     147.239
  P      410.108     -70.569     146.427
  C      408.263     -68.758     146.260
  O      409.594     -69.066     146.677
  C      407.997     -67.249     146.356
  O      408.287     -66.800     147.701
  C      408.872     -66.386     145.428
  O      408.402     -66.118     144.106
  C      408.861     -65.053     146.170
  O      407.659     -64.317     145.837
  C      408.825     -65.451     147.648
  N      411.790     -62.831     150.889
  C      410.525     -62.635     150.448
  N      409.805     -63.378     149.587
  C      410.515     -64.436     149.173
  C      411.819     -64.772     149.520
  C      412.468     -63.907     150.430
  N      413.755     -64.112     150.860
  N      412.214     -65.929     148.882
  C      411.176     -66.273     148.139
  N      410.119     -65.409     148.286
  O      410.369     -70.927     145.003
  O      411.459     -70.610     147.288
  H      407.741     -64.070     144.900
  H      412.224     -70.562     146.674
  H      410.022     -61.747     150.847
  H      411.147     -67.136     147.474
  H      408.152     -64.815     148.234
  H      409.702     -64.416     145.896
  H      409.892     -66.774     145.386
  H      406.941     -67.055     146.150
  H      407.552     -69.299     146.896
  H      414.162     -63.423     151.474
  H      414.294     -64.881     150.491
  H      408.145     -69.151     145.246
  P      408.990     -66.904     142.840
  C      410.230     -64.709     142.105
  O      410.309     -66.096     142.409
  O      408.015     -67.143     141.733
  O      409.580     -68.230     143.504
  H      410.363     -68.087     144.061
  H      411.247     -64.304     142.051
  H      409.677     -64.169     142.880
  H      409.737     -64.571     141.137
  H      408.206     -72.032     148.998
  H      408.337     -70.327     148.637
  H      409.743     -71.218     149.170

 3  4  5  6  7  8  9  10  11  12  22  25  29  30  31  32 0
 6-311+G(2d,p)
 ****
 33  36  37 0
 6-311+G(2d,p)
 ****
 1  2  13  14  15  16  17  18  19  20  21  23  24  26 0
 3-21G
 ****
 27  28  34  35  38  39  40  41  42  43  44  45  46  47  48 0
 3-21G
 ****


