%nproc=1
%NoSave
%Mem=1900MB
#P OB98/GEN NMR

erre ene a

0 1
  C       34.283      41.189     -39.437
  O       35.265      40.988     -40.440
  P       36.706      40.453     -39.979
  C       38.247      41.110     -37.950
  O       37.204      41.468     -38.843
  C       38.236      42.034     -36.730
  O       37.112      41.716     -35.883
  C       39.464      41.916     -35.835
  O       40.586      42.585     -36.388
  C       38.941      42.516     -34.536
  O       38.971      43.952     -34.602
  C       37.483      42.016     -34.521
  N       37.279      40.860     -33.650
  C       37.080      41.135     -32.300
  O       37.069      42.275     -31.840
  N       36.910      40.044     -31.489
  C       36.985      38.737     -31.873
  O       36.869      37.798     -31.097
  C       37.230      38.510     -33.305
  C       37.364      39.563     -34.114
  O       37.580      40.820     -41.266
  O       36.703      39.011     -39.604
  H       37.210      41.579     -41.751
  H       38.813      44.274     -33.694
  H       36.741      40.218     -30.510
  H       37.304      37.485     -33.647
  H       37.555      39.414     -35.169
  H       36.810      42.817     -34.192
  H       39.532      42.216     -33.665
  H       39.709      40.858     -35.677
  H       38.116      43.066     -37.082
  H       39.205      41.199     -38.468
  H       38.111      40.068     -37.644
  P       41.984      42.403     -35.613
  C       42.408      42.090     -33.053
  O       41.691      42.744     -34.076
  O       42.804      43.669     -36.149
  O       42.643      41.087     -35.865
  H       42.266      44.477     -36.192
  H       42.338      42.685     -32.139
  H       43.462      41.971     -33.317
  H       41.967      41.107     -32.868
  H       33.380      41.544     -39.888
  H       34.637      41.911     -38.731
  H       34.091      40.264     -38.935

 3  4  5  6  7  8  9  10  11  12  13  24  28  29  30  31  32 0
 6-311+G(2d,p)
 ****
 33  34 0
 6-311+G(2d,p)
 ****
 1  2  14  15  16  17  18  19  20  21  22  23  25  26  27 0
 3-21G
 ****
 35  36  37  38  39  40  41  42  43  44  45 0
 3-21G
 ****


