%nproc=1
%NoSave
%Mem=1900MB
#P OB98/GEN NMR

erre ene a

0 1
  C     -255.420     317.223     163.719
  O     -256.555     317.177     162.880
  H     -255.675     316.767     164.678
  H     -255.124     318.261     163.893
  H     -254.587     316.668     163.279
  P     -256.401     317.617     161.347
  C     -255.000     315.793     160.174
  O     -256.301     316.268     160.487
  C     -255.069     314.649     159.155
  O     -253.729     314.424     158.618
  C     -255.551     313.307     159.741
  O     -256.221     312.603     158.684
  C     -254.226     312.654     160.088
  O     -254.360     311.290     160.401
  C     -253.426     313.030     158.834
  N     -251.986     312.823     158.925
  C     -251.495     311.550     158.656
  O     -252.192     310.586     158.342
  N     -250.137     311.402     158.763
  C     -249.245     312.380     159.087
  O     -248.035     312.196     159.134
  C     -249.822     313.702     159.367
  C     -251.143     313.863     159.270
  O     -255.340     318.628     161.064
  O     -257.856     318.170     160.966
  H     -257.847     319.146     160.974
  H     -253.468     310.909     160.554
  H     -249.765     310.487     158.566
  H     -249.144     314.500     159.640
  H     -251.597     314.831     159.462
  H     -253.811     312.479     157.967
  H     -253.800     313.125     160.979
  H     -256.233     313.427     160.587
  H     -255.700     314.963     158.315
  H     -254.536     315.434     161.100
  H     -254.402     316.617     159.775
  P     -257.618     311.837     158.880
  C     -259.202     313.872     159.097
  O     -258.786     312.773     158.297
  O     -257.862     311.370     160.274
  O     -257.568     310.605     157.857
  H     -258.142     309.887     158.186
  H     -259.980     314.406     158.592
  H     -258.371     314.525     159.265
  H     -259.568     313.512     160.036

 6  7  8  9  10  11  12  13  14  15  16  27  31  32  33  34  35 0
 6-311+G(2d,p)
 ****
 36  37 0
 6-311+G(2d,p)
 ****
 1  2  3  4  5  17  18  19  20  21  22  23  24  25 0
 3-21G
 ****
 26  28  29  30  38  39  40  41  42  43  44  45 0
 3-21G
 ****


