%nproc=1
%NoSave
%Mem=1900MB
#P OB98/GEN NMR

erre ene a

0 1
  C      535.809    -166.880     124.822
  O      534.389    -166.959     124.879
  P      533.542    -166.465     126.158
  C      532.342    -164.578     124.859
  O      532.193    -165.762     125.643
  C      530.991    -164.011     124.407
  O      530.504    -164.712     123.233
  C      529.874    -164.146     125.458
  O      529.999    -163.153     126.451
  C      528.633    -164.031     124.574
  O      528.349    -162.654     124.282
  C      529.075    -164.771     123.306
  N      525.021    -167.858     122.796
  C      525.149    -166.520     122.746
  N      526.254    -165.761     122.886
  C      527.337    -166.554     123.088
  C      527.360    -167.930     123.158
  C      526.140    -168.593     123.001
  N      526.007    -169.970     123.059
  N      528.644    -168.385     123.400
  C      529.386    -167.291     123.448
  N      528.634    -166.156     123.256
  O      534.333    -165.624     127.125
  O      533.026    -167.808     126.857
  H      527.643    -162.644     123.603
  H      532.910    -167.649     127.817
  H      524.224    -165.955     122.569
  H      530.454    -167.274     123.601
  H      528.694    -164.290     122.391
  H      527.739    -164.461     125.045
  H      529.905    -165.143     125.919
  H      531.139    -162.959     124.133
  H      532.943    -164.822     123.978
  H      525.091    -170.363     122.973
  H      526.833    -170.531     123.266
  H      532.872    -163.831     125.464
  P      529.101    -163.210     127.773
  C      530.920    -163.792     129.500
  O      530.046    -162.789     128.995
  O      528.322    -164.470     127.968
  O      528.123    -161.940     127.629
  H      527.281    -162.146     128.086
  H      530.356    -164.462     130.146
  H      531.720    -163.308     130.076
  H      531.372    -164.354     128.669
  H      536.150    -167.263     123.883
  H      536.231    -167.458     125.618
  H      536.114    -165.859     124.923

 3  4  5  6  7  8  9  10  11  12  22  25  29  30  31  32 0
 6-311+G(2d,p)
 ****
 33  36  37 0
 6-311+G(2d,p)
 ****
 1  2  13  14  15  16  17  18  19  20  21  23  24  26 0
 3-21G
 ****
 27  28  34  35  38  39  40  41  42  43  44  45  46  47  48 0
 3-21G
 ****


