%nproc=1
%NoSave
%Mem=1900MB
#P OB98/GEN NMR

erre ene a

0 1
  C      272.460     307.031     668.884
  O      272.904     308.337     668.596
  H      272.504     306.872     669.966
  H      273.094     306.286     668.396
  H      271.417     306.907     668.558
  P      273.076     308.776     667.060
  C      275.633     308.547     666.775
  O      274.354     307.980     666.503
  C      276.579     308.363     665.594
  O      276.100     309.176     664.484
  C      278.030     308.780     665.901
  O      278.919     307.871     665.225
  C      278.115     310.161     665.281
  O      279.454     310.501     664.966
  C      277.173     310.038     664.064
  N      276.698     311.351     663.645
  C      277.647     312.217     663.082
  O      278.830     311.855     662.959
  N      277.270     313.492     662.731
  C      276.066     313.890     662.985
  N      275.758     315.179     662.650
  C      275.029     313.023     663.595
  C      275.407     311.780     663.895
  O      273.094     310.249     666.797
  O      271.844     308.062     666.322
  H      279.503     311.463     664.811
  H      271.072     308.656     666.309
  H      274.035     313.408     663.784
  H      274.724     311.081     664.357
  H      277.689     309.554     663.223
  H      277.717     310.905     665.988
  H      278.261     308.791     666.968
  H      276.536     307.314     665.267
  H      276.514     315.740     662.262
  H      276.039     308.035     667.668
  H      274.875     315.614     662.842
  H      275.519     309.615     667.012
  P      280.333     307.467     665.883
  C      281.891     309.343     665.117
  O      281.153     308.813     666.217
  O      281.093     306.434     665.125
  O      279.928     306.922     667.342
  H      280.574     306.245     667.620
  H      282.402     310.231     665.425
  H      281.220     309.577     664.317
  H      282.604     308.618     664.784

 6  7  8  9  10  11  12  13  14  15  16  26  30  31  32  33  35 0
 6-311+G(2d,p)
 ****
 37  38 0
 6-311+G(2d,p)
 ****
 1  2  3  4  5  17  18  19  20  21  22  23  24  25 0
 3-21G
 ****
 27  28  29  34  36  39  40  41  42  43  44  45  46 0
 3-21G
 ****


