%nproc=1
%NoSave
%Mem=1900MB
#P OB98/GEN NMR

erre ene a

0 1
  C     -172.708    -415.176    -238.344
  O     -173.534    -414.528    -239.294
  H     -173.344    -415.700    -237.626
  H     -172.099    -414.440    -237.810
  H     -172.062    -415.903    -238.843
  P     -172.789    -413.666    -240.425
  C     -174.552    -411.912    -241.152
  O     -173.968    -413.188    -241.403
  C     -175.835    -411.743    -241.963
  O     -175.528    -411.547    -243.358
  C     -176.776    -412.944    -241.901
  O     -177.576    -412.878    -240.729
  C     -177.611    -412.720    -243.153
  O     -178.637    -411.741    -242.886
  C     -176.588    -412.145    -244.146
  N     -176.673    -413.997    -248.932
  C     -177.509    -413.163    -248.287
  N     -177.459    -412.757    -246.995
  C     -176.399    -413.299    -246.362
  C     -175.464    -414.172    -246.903
  C     -175.622    -414.518    -248.255
  N     -174.770    -415.380    -248.914
  N     -174.522    -414.520    -245.955
  C     -174.851    -413.822    -244.889
  N     -176.000    -413.096    -245.068
  O     -171.619    -414.327    -241.076
  O     -172.446    -412.327    -239.612
  H     -179.160    -412.083    -242.135
  H     -173.192    -412.080    -239.040
  H     -178.329    -412.767    -248.869
  H     -174.281    -413.799    -243.959
  H     -177.022    -411.343    -244.764
  H     -178.119    -413.626    -243.488
  H     -176.242    -413.888    -241.990
  H     -176.339    -410.833    -241.614
  H     -173.840    -411.115    -241.416
  H     -175.068    -415.722    -249.813
  H     -174.065    -415.862    -248.367
  H     -174.758    -411.848    -240.082
  P     -177.037    -413.446    -239.328
  C     -179.196    -414.712    -238.731
  O     -178.348    -413.612    -238.414
  O     -175.920    -412.661    -238.729
  O     -176.630    -414.958    -239.645
  H     -176.045    -415.300    -238.936
  H     -180.031    -414.723    -238.062
  H     -178.648    -415.625    -238.632
  H     -179.546    -414.614    -239.737

 6  7  8  9  10  11  12  13  14  15  25  28  32  33  34  35 0
 6-311+G(2d,p)
 ****
 36  39  40 0
 6-311+G(2d,p)
 ****
 1  2  3  4  5  16  17  18  19  20  21  22  23  24 0
 3-21G
 ****
 26  27  29  30  31  37  38  41  42  43  44  45  46  47 0
 3-21G
 ****
 48 0
 3-21G
 ****


