%nproc=1
%NoSave
%Mem=1900MB
#P OB98/GEN NMR

erre ene a

0 1
  C     -899.500     380.656    -237.172
  O     -899.810     381.280    -238.400
  H     -899.930     381.249    -236.354
  H     -898.420     380.592    -237.022
  H     -899.940     379.653    -237.135
  P     -899.160     380.675    -239.740
  C     -896.620     380.733    -239.225
  O     -897.720     381.366    -239.868
  C     -895.330     381.466    -239.581
  O     -895.020     381.290    -240.977
  C     -895.400     382.963    -239.363
  O     -895.320     383.285    -237.987
  C     -894.250     383.456    -240.224
  O     -893.000     383.290    -239.555
  C     -894.360     382.510    -241.430
  N     -895.070     383.104    -242.566
  C     -894.610     384.359    -242.966
  O     -893.670     384.905    -242.397
  N     -895.280     384.981    -244.018
  C     -896.270     384.396    -244.607
  N     -896.870     385.060    -245.625
  C     -896.770     383.062    -244.212
  C     -896.120     382.466    -243.186
  O     -900.000     380.723    -240.979
  O     -898.790     379.164    -239.326
  H     -893.090     383.738    -238.683
  H     -899.540     378.568    -239.517
  H     -897.590     382.601    -244.730
  H     -896.420     381.502    -242.840
  H     -893.350     382.200    -241.766
  H     -894.350     384.505    -240.476
  H     -896.340     383.374    -239.782
  H     -894.510     381.032    -239.001
  H     -896.520     385.979    -245.867
  H     -896.580     379.701    -239.584
  H     -897.600     384.663    -246.205
  H     -896.770     380.722    -238.145
  P     -896.440     384.189    -237.271
  C     -896.020     386.140    -238.906
  O     -896.010     385.711    -237.558
  O     -896.710     383.853    -235.842
  O     -897.700     383.991    -238.231
  H     -898.110     383.097    -238.103
  H     -895.716     387.165    -238.956
  H     -897.008     386.041    -239.304
  H     -895.344     385.539    -239.477

 6  7  8  9  10  11  12  13  14  15  16  26  30  31  32  33  35 0
 6-311+G(2d,p)
 ****
 37  38 0
 6-311+G(2d,p)
 ****
 1  2  3  4  5  17  18  19  20  21  22  23  24  25 0
 3-21G
 ****
 27  28  29  34  36  39  40  41  42  43  44  45  46 0
 3-21G
 ****


