%nproc=1
%NoSave
%Mem=1900MB
#P OB98/GEN NMR

erre ene a

0 1
  C       10.472    -218.601     339.924
  O       11.315    -217.506     340.238
  P       10.756    -216.027     339.953
  C       11.327    -213.676     340.991
  O       11.681    -215.039     340.811
  C       12.224    -213.030     342.051
  O       11.736    -213.356     343.370
  C       13.671    -213.504     342.028
  O       14.408    -212.901     340.977
  C       14.132    -213.113     343.430
  O       14.458    -211.715     343.480
  C       12.868    -213.397     344.266
  N       12.922    -214.667     344.986
  C       12.981    -214.586     346.374
  O       12.989    -213.515     346.986
  N       13.053    -215.781     347.041
  C       13.136    -217.017     346.472
  O       13.242    -218.051     347.116
  C       13.101    -217.039     345.000
  C       12.998    -215.884     344.337
  O        9.369    -216.081     340.751
  O       10.641    -215.712     338.501
  H        9.400    -216.714     341.489
  H       14.783    -211.541     344.384
  H       13.076    -215.745     348.051
  H       13.173    -218.002     344.509
  H       12.981    -215.881     343.253
  H       12.707    -212.592     344.998
  H       15.020    -213.668     343.753
  H       13.706    -214.595     341.921
  H       12.169    -211.942     341.929
  H       10.281    -213.620     341.309
  H       11.430    -213.151     340.036
  P       15.923    -213.404     340.777
  C       17.629    -213.290     338.799
  O       16.359    -212.948     339.304
  O       15.713    -214.988     340.657
  O       16.843    -212.985     341.878
  H       14.944    -215.221     340.107
  H       17.604    -213.218     337.707
  H       17.910    -214.311     339.078
  H       18.376    -212.592     339.183
  H       10.972    -219.516     340.165
  H       10.241    -218.585     338.879
  H        9.567    -218.529     340.491

 3  4  5  6  7  8  9  10  11  12  13  24  28  29  30  31  32 0
 6-311+G(2d,p)
 ****
 33  34 0
 6-311+G(2d,p)
 ****
 1  2  14  15  16  17  18  19  20  21  22  23  25  26  27 0
 3-21G
 ****
 35  36  37  38  39  40  41  42  43  44  45 0
 3-21G
 ****


