%nproc=1
%NoSave
%Mem=1900MB
#P OB98/GEN NMR

erre ene a

0 1
  C       -1.038     -72.760      60.233
  O       -1.773     -73.964      60.355
  P       -1.740     -75.008      59.139
  C        0.176     -76.654      59.859
  O       -0.238     -75.564      59.056
  C        0.704     -77.791      58.979
  O       -0.351     -78.211      58.069
  C        1.925     -77.421      58.127
  O        2.752     -78.589      58.042
  C        1.309     -77.106      56.775
  O        2.239     -77.215      55.710
  C        0.176     -78.137      56.730
  N       -0.883     -77.799      55.779
  C       -1.113     -78.673      54.724
  O       -0.464     -79.699      54.528
  N       -2.113     -78.309      53.857
  C       -2.840     -77.157      53.906
  O       -3.712     -76.874      53.094
  C       -2.521     -76.249      55.016
  C       -1.582     -76.612      55.891
  O       -1.862     -74.025      57.884
  O       -2.794     -76.059      59.223
  H       -1.399     -73.180      58.017
  H        2.554     -78.136      55.674
  H       -2.322     -78.947      53.106
  H       -3.068     -75.317      55.083
  H       -1.328     -75.958      56.718
  H        0.580     -79.128      56.490
  H        0.918     -76.084      56.783
  H        2.496     -76.592      58.550
  H        0.932     -78.647      59.626
  H       -0.672     -77.020      60.443
  H        0.946     -76.315      60.560
  P        4.349     -78.392      58.092
  C        4.346     -78.611      60.700
  O        4.722     -77.872      59.559
  O        4.500     -77.069      57.194
  O        5.143     -79.541      57.564
  H        3.880     -76.366      57.453
  H        4.961     -78.289      61.544
  H        4.494     -79.682      60.549
  H        3.295     -78.415      60.935
  H       -1.161     -72.175      61.121
  H       -1.396     -72.208      59.389
  H       -0.001     -72.987      60.097

 3  4  5  6  7  8  9  10  11  12  13  24  28  29  30  31  32 0
 6-311+G(2d,p)
 ****
 33  34 0
 6-311+G(2d,p)
 ****
 1  2  14  15  16  17  18  19  20  21  22  23  25  26  27 0
 3-21G
 ****
 35  36  37  38  39  40  41  42  43  44  45 0
 3-21G
 ****


