%nproc=1
%NoSave
%Mem=1900MB
#P OB98/GEN NMR

erre ene a

0 1
  C      547.819    -752.606     255.477
  O      548.692    -752.129     256.482
  H      547.476    -753.605     255.761
  H      548.353    -752.674     254.528
  H      546.947    -751.955     255.364
  P      549.056    -750.571     256.507
  C      549.380    -750.665     259.071
  O      549.951    -750.315     257.813
  C      549.784    -752.081     259.488
  O      551.220    -752.144     259.666
  C      549.149    -752.435     260.836
  O      548.928    -753.837     260.975
  C      550.217    -752.001     261.834
  O      550.097    -752.652     263.092
  C      551.495    -752.343     261.065
  N      554.471    -750.764     264.884
  C      553.300    -751.492     264.937
  N      552.851    -751.816     266.167
  N      552.620    -751.841     263.873
  C      553.149    -751.385     262.710
  C      554.294    -750.634     262.544
  C      555.051    -750.282     263.721
  O      556.087    -749.625     263.734
  N      554.502    -750.336     261.214
  C      553.486    -750.899     260.596
  N      552.640    -751.558     261.456
  O      547.671    -749.861     256.892
  O      549.622    -750.014     255.236
  H      549.176    -752.546     263.397
  H      547.656    -748.947     256.567
  H      554.959    -750.527     265.735
  H      553.313    -750.867     259.518
  H      551.754    -753.399     261.205
  H      550.099    -750.924     262.010
  H      553.227    -751.418     267.010
  H      548.211    -751.913     261.003
  H      551.858    -752.078     266.241
  H      549.528    -752.795     258.699
  H      548.286    -750.601     258.956
  H      549.663    -749.931     259.830
  P      547.416    -754.331     261.184
  C      546.989    -756.739     260.229
  O      547.439    -755.928     261.302
  O      546.729    -754.052     259.767
  O      546.711    -753.637     262.299
  H      546.158    -753.267     259.824
  H      547.082    -757.770     260.498
  H      547.582    -756.542     259.360
  H      545.964    -756.517     260.019

 6  7  8  9  10  11  12  13  14  15  26  29  33  34 0
 6-311+G(2d,p)
 ****
 36  38  39  40  41 0
 6-311+G(2d,p)
 ****
 1  2  3  4  5  16  17  18  19  20  21  22  23  24  25 0
 3-21G
 ****
 27  28  30  31  32  35  37  42  43  44  45  46  47 0
 3-21G
 ****
 48  49 0
 3-21G
 ****


