%nproc=1
%NoSave
%Mem=1900MB
#P OB98/GEN NMR

erre ene a

0 1
  C       20.418    -130.661      86.667
  O       19.596    -129.546      86.388
  H       20.422    -130.832      87.747
  H       21.444    -130.465      86.343
  H       20.036    -131.559      86.173
  P       19.296    -129.171      84.859
  C       21.221    -127.452      84.836
  O       20.663    -128.615      84.237
  C       22.402    -126.955      84.007
  O       23.554    -127.800      84.223
  C       22.152    -126.975      82.503
  O       21.330    -125.894      82.107
  C       23.576    -126.919      81.973
  O       24.076    -125.572      81.987
  C       24.326    -127.798      82.999
  N       24.559    -129.160      82.517
  C       25.784    -129.399      81.902
  O       26.634    -128.527      81.726
  N       25.989    -130.682      81.465
  C       25.070    -131.690      81.478
  O       25.274    -132.799      80.990
  C       23.785    -131.374      82.118
  C       23.591    -130.144      82.601
  O       18.100    -128.310      84.627
  O       19.133    -130.598      84.148
  H       25.035    -125.633      81.807
  H       18.188    -130.768      83.973
  H       26.866    -130.871      81.004
  H       23.034    -132.152      82.161
  H       22.648    -129.890      83.071
  H       25.299    -127.351      83.243
  H       23.650    -127.278      80.948
  H       21.704    -127.931      82.210
  H       22.661    -125.941      84.345
  H       21.564    -127.706      85.844
  H       20.445    -126.681      84.908
  P       20.203    -126.117      80.992
  C       21.513    -124.924      79.129
  O       20.930    -126.148      79.562
  O       19.025    -125.205      81.083
  O       19.756    -127.641      81.200
  H       18.806    -127.672      81.425
  H       21.966    -125.064      78.170
  H       22.257    -124.615      79.833
  H       20.754    -124.173      79.059

 6  7  8  9  10  11  12  13  14  15  16  26  31  32  33  34  35 0
 6-311+G(2d,p)
 ****
 36  37 0
 6-311+G(2d,p)
 ****
 1  2  3  4  5  17  18  19  20  21  22  23  24  25 0
 3-21G
 ****
 27  28  29  30  38  39  40  41  42  43  44  45 0
 3-21G
 ****


