%nproc=1
%NoSave
%Mem=1900MB
#P OB98/GEN NMR

erre ene a

0 1
  C      -70.195     559.820     408.048
  O      -69.694     558.841     408.940
  H      -69.882     560.807     408.397
  H      -71.287     559.792     408.023
  H      -69.795     559.658     407.043
  P      -70.084     557.309     408.691
  C      -67.851     556.587     407.605
  O      -69.241     556.826     407.419
  C      -67.586     555.101     407.853
  O      -68.148     554.309     406.783
  C      -66.115     554.725     407.924
  O      -65.548     555.126     409.153
  C      -66.194     553.224     407.700
  O      -66.596     552.547     408.903
  C      -67.306     553.130     406.631
  N      -66.799     553.039     405.259
  C      -66.753     551.752     404.716
  O      -67.106     550.779     405.380
  N      -66.274     551.606     403.432
  C      -65.927     552.646     402.745
  N      -65.469     552.440     401.475
  C      -66.006     554.028     403.275
  C      -66.424     554.145     404.527
  O      -71.545     557.003     408.621
  O      -69.383     556.532     409.909
  H      -65.897     552.743     409.565
  H      -70.010     556.420     410.648
  H      -65.715     554.874     402.661
  H      -66.514     555.123     404.992
  H      -67.953     552.264     406.819
  H      -65.235     552.800     407.391
  H      -65.570     555.172     407.081
  H      -68.111     554.811     408.778
  H      -65.463     551.476     401.151
  H      -67.536     557.175     408.482
  H      -65.331     553.177     400.800
  H      -67.279     556.929     406.741
  P      -63.982     555.431     409.308
  C      -64.204     557.952     408.842
  O      -63.691     556.715     408.378
  O      -63.083     554.262     409.055
  O      -63.856     556.040     410.780
  H      -63.898     555.305     411.456
  H      -63.951     558.726     408.148
  H      -63.780     558.178     409.798
  H      -65.268     557.886     408.930

 6  7  8  9  10  11  12  13  14  15  16  26  30  31  32  33  35 0
 6-311+G(2d,p)
 ****
 37  38 0
 6-311+G(2d,p)
 ****
 1  2  3  4  5  17  18  19  20  21  22  23  24  25 0
 3-21G
 ****
 27  28  29  34  36  39  40  41  42  43  44  45  46 0
 3-21G
 ****


