%nproc=1
%NoSave
%Mem=1900MB
#P OB98/GEN NMR

erre ene a

0 1
  C      239.894    -174.403     -47.284
  O      238.594    -174.385     -47.836
  H      240.611    -174.601     -48.087
  H      239.975    -175.203     -46.544
  H      240.136    -173.441     -46.825
  P      237.358    -173.980     -46.901
  C      237.126    -176.325     -45.847
  O      237.392    -174.946     -45.619
  C      237.149    -177.107     -44.530
  O      236.930    -178.512     -44.823
  C      238.469    -176.989     -43.766
  O      238.199    -176.944     -42.364
  C      239.194    -178.273     -44.110
  O      240.131    -178.656     -43.103
  C      238.034    -179.255     -44.270
  N      237.476    -184.228     -44.990
  C      236.898    -183.392     -44.052
  N      236.065    -183.968     -43.158
  N      237.123    -182.106     -43.991
  C      237.964    -181.662     -44.958
  C      238.595    -182.385     -45.944
  C      238.353    -183.811     -45.987
  O      238.848    -184.602     -46.783
  N      239.384    -181.576     -46.725
  C      239.228    -180.372     -46.214
  N      238.385    -180.370     -45.135
  O      236.035    -173.915     -47.597
  O      237.771    -172.560     -46.294
  H      240.560    -179.482     -43.410
  H      237.273    -171.838     -46.724
  H      237.275    -185.211     -44.984
  H      239.699    -179.471     -46.582
  H      237.717    -179.684     -43.308
  H      239.739    -178.150     -45.055
  H      235.827    -184.948     -43.163
  H      239.037    -176.102     -44.055
  H      235.607    -183.375     -42.478
  H      236.306    -176.775     -43.914
  H      237.899    -176.715     -46.521
  H      236.149    -176.428     -46.331
  P      238.290    -175.539     -41.595
  C      240.799    -175.663     -41.043
  O      239.782    -174.963     -41.747
  O      237.755    -175.534     -40.202
  O      237.437    -174.562     -42.541
  H      236.976    -173.907     -41.981
  H      241.743    -175.191     -41.218
  H      240.837    -176.676     -41.385
  H      240.582    -175.649     -39.995

 6  7  8  9  10  11  12  13  14  15  26  29  33  34 0
 6-311+G(2d,p)
 ****
 36  38  39  40  41 0
 6-311+G(2d,p)
 ****
 1  2  3  4  5  16  17  18  19  20  21  22  23  24  25 0
 3-21G
 ****
 27  28  30  31  32  35  37  42  43  44  45  46  47 0
 3-21G
 ****
 48  49 0
 3-21G
 ****


