%nproc=1
%NoSave
%Mem=1900MB
#P OB98/GEN NMR

erre ene a

0 1
  C      464.768    -462.389     261.078
  O      465.906    -462.803     261.851
  P      466.900    -463.958     261.344
  C      467.375    -465.432     263.415
  O      467.859    -464.389     262.564
  C      468.379    -465.773     264.512
  O      468.527    -464.669     265.432
  C      467.999    -466.980     265.366
  O      468.289    -468.190     264.676
  C      468.825    -466.733     266.622
  O      470.186    -467.163     266.423
  C      468.763    -465.209     266.751
  N      467.241    -465.234     271.636
  C      468.334    -465.748     271.032
  N      468.662    -465.703     269.717
  C      467.738    -465.022     269.019
  C      466.571    -464.445     269.498
  C      466.326    -464.572     270.882
  N      465.207    -464.059     271.498
  N      465.856    -463.857     268.478
  C      466.592    -464.059     267.394
  N      467.741    -464.752     267.673
  O      467.630    -463.632     260.081
  O      465.964    -465.240     261.139
  H      470.638    -467.108     267.288
  H      466.342    -465.819     260.446
  H      469.031    -466.263     271.678
  H      466.343    -463.716     266.405
  H      469.716    -464.794     267.094
  H      468.438    -467.272     267.497
  H      466.933    -466.943     265.617
  H      469.355    -465.931     264.042
  H      467.183    -466.317     262.800
  H      465.085    -464.226     272.481
  H      464.501    -463.614     270.930
  H      466.422    -465.099     263.857
  P      467.299    -469.440     264.781
  C      469.081    -471.253     265.159
  O      468.107    -470.725     264.275
  O      465.950    -469.244     264.177
  O      467.185    -469.699     266.365
  H      466.316    -470.084     266.567
  H      469.995    -470.653     265.089
  H      469.310    -472.286     264.863
  H      468.717    -471.246     266.186
  H      464.247    -461.613     261.598
  H      464.113    -463.223     260.933
  H      465.096    -462.023     260.128

 3  4  5  6  7  8  9  10  11  12  22  25  29  30  31  32 0
 6-311+G(2d,p)
 ****
 33  36  37 0
 6-311+G(2d,p)
 ****
 1  2  13  14  15  16  17  18  19  20  21  23  24  26 0
 3-21G
 ****
 27  28  34  35  38  39  40  41  42  43  44  45  46  47  48 0
 3-21G
 ****


