%nproc=1
%NoSave
%Mem=1900MB
#P OB98/GEN NMR

erre ene a

0 1
  C       67.148    -111.470    -106.979
  O       68.364    -110.754    -106.887
  H       66.372    -110.793    -107.342
  H       66.856    -111.850    -105.996
  H       67.255    -112.298    -107.684
  P       69.633    -111.564    -106.334
  C       69.872    -109.875    -104.402
  O       69.660    -111.235    -104.761
  C       69.868    -109.717    -102.881
  O       68.560    -110.094    -102.382
  C       70.906    -110.593    -102.176
  O       71.459    -109.872    -101.077
  C       70.090    -111.764    -101.658
  O       70.692    -112.387    -100.526
  C       68.743    -111.103    -101.374
  N       65.929    -114.296     -98.563
  C       66.849    -113.367     -98.226
  N       67.543    -112.544     -99.042
  C       67.169    -112.720    -100.322
  C       66.250    -113.628    -100.816
  C       65.616    -114.452     -99.871
  N       64.696    -115.418    -100.207
  N       66.174    -113.537    -102.192
  C       67.021    -112.580    -102.521
  N       67.659    -112.068    -101.424
  O       70.917    -111.329    -107.057
  O       69.095    -113.070    -106.362
  H       70.068    -113.055    -100.174
  H       68.186    -113.130    -106.017
  H       67.062    -113.276     -97.165
  H       67.218    -112.235    -103.530
  H       68.709    -110.624    -100.388
  H       69.992    -112.521    -102.446
  H       71.704    -110.917    -102.845
  H       70.008    -108.658    -102.637
  H       69.089    -109.244    -104.837
  H       64.278    -115.956     -99.464
  H       64.436    -115.538    -101.175
  H       70.837    -109.565    -104.813
  P       72.658    -108.847    -101.362
  C       74.516    -110.635    -101.471
  O       73.808    -109.618    -102.173
  O       73.124    -108.046    -100.193
  O       72.033    -107.892    -102.490
  H       72.341    -106.978    -102.336
  H       75.250    -111.069    -102.117
  H       73.830    -111.391    -101.151
  H       75.000    -110.208    -100.617

 6  7  8  9  10  11  12  13  14  15  25  28  32  33  34  35 0
 6-311+G(2d,p)
 ****
 36  39  40 0
 6-311+G(2d,p)
 ****
 1  2  3  4  5  16  17  18  19  20  21  22  23  24 0
 3-21G
 ****
 26  27  29  30  31  37  38  41  42  43  44  45  46  47 0
 3-21G
 ****
 48 0
 3-21G
 ****


