%nproc=1
%NoSave
%Mem=1900MB
#P OB98/GEN NMR

erre ene a

0 1
  C     -195.862    -335.815     204.134
  O     -195.726    -334.386     204.016
  P     -196.855    -333.438     204.660
  C     -199.316    -332.743     204.080
  O     -198.191    -333.556     203.776
  C     -200.366    -332.844     202.965
  O     -199.859    -332.273     201.738
  C     -200.764    -334.271     202.610
  O     -201.652    -334.830     203.565
  C     -201.397    -334.064     201.235
  O     -202.766    -333.642     201.363
  C     -200.525    -332.943     200.645
  N     -199.572    -333.425     199.650
  C     -199.497    -332.702     198.466
  O     -200.216    -331.730     198.217
  N     -198.580    -333.144     197.552
  C     -197.799    -334.265     197.673
  O     -197.007    -334.620     196.813
  C     -197.982    -335.035     198.912
  C     -198.853    -334.587     199.827
  O     -196.330    -331.971     204.264
  O     -197.039    -333.553     206.139
  H     -203.213    -334.315     201.921
  H     -196.642    -331.325     204.928
  H     -198.479    -332.618     196.699
  H     -197.400    -335.940     199.041
  H     -199.000    -335.147     200.746
  H     -201.163    -332.176     200.180
  H     -201.400    -334.983     200.641
  H     -199.864    -334.896     202.497
  H     -201.248    -332.261     203.275
  H     -198.991    -331.706     204.180
  H     -199.740    -333.064     205.043
  P     -200.986    -335.606     204.800
  C     -199.618    -337.837     204.953
  O     -200.450    -336.992     204.184
  O     -202.291    -336.007     205.650
  O     -199.980    -334.787     205.548
  H     -203.057    -336.189     205.075
  H     -199.867    -337.787     206.019
  H     -198.570    -337.541     204.810
  H     -199.748    -338.867     204.612
  H     -195.033    -336.293     203.655
  H     -196.772    -336.127     203.666
  H     -195.882    -336.087     205.169

 3  4  5  6  7  8  9  10  11  12  13  23  28  29  30  31  32 0
 6-311+G(2d,p)
 ****
 33  34 0
 6-311+G(2d,p)
 ****
 1  2  14  15  16  17  18  19  20  21  22  24  25  26 0
 3-21G
 ****
 27  35  36  37  38  39  40  41  42  43  44  45 0
 3-21G
 ****


