%nproc=1
%NoSave
%Mem=1900MB
#P OB98/GEN NMR

erre ene a

0 1
  C       -9.533      79.770    -113.208
  O      -10.138      79.158    -114.339
  P      -11.722      79.319    -114.533
  C      -13.775      77.923    -113.784
  O      -12.426      78.285    -113.526
  C      -14.608      77.946    -112.504
  O      -14.612      79.296    -111.967
  C      -16.071      77.528    -112.690
  O      -16.480      76.870    -111.485
  C      -16.796      78.856    -112.800
  O      -18.185      78.740    -112.505
  C      -15.992      79.688    -111.804
  N      -16.557      84.259    -109.585
  C      -16.411      83.021    -109.067
  N      -16.265      81.852    -109.723
  C      -16.282      82.048    -111.052
  C      -16.458      83.246    -111.724
  C      -16.597      84.398    -110.931
  N      -16.736      85.661    -111.456
  N      -16.446      83.043    -113.089
  C      -16.267      81.747    -113.238
  N      -16.138      81.110    -112.036
  O      -11.967      78.665    -115.973
  O      -12.230      80.719    -114.478
  H      -18.276      78.307    -111.635
  H      -12.223      79.357    -116.614
  H      -16.404      82.963    -107.982
  H      -16.225      81.226    -114.184
  H      -16.281      79.484    -110.766
  H      -16.697      79.249    -113.818
  H      -16.245      76.880    -113.555
  H      -14.118      77.305    -111.762
  H      -13.793      76.910    -114.196
  H      -16.691      86.447    -110.828
  H      -16.577      85.798    -112.448
  H      -14.201      78.606    -114.526
  P      -17.656      75.787    -111.612
  C      -20.118      75.979    -112.401
  O      -19.022      76.605    -111.764
  O      -17.745      75.166    -110.139
  O      -17.406      74.733    -112.641
  H      -18.081      74.251    -110.183
  H      -21.045      76.337    -111.943
  H      -20.076      74.889    -112.308
  H      -20.119      76.247    -113.461
  H       -8.481      79.575    -113.217
  H       -9.962      79.369    -112.313
  H       -9.700      80.826    -113.242

 3  4  5  6  7  8  9  10  11  12  22  25  29  30  31  32 0
 6-311+G(2d,p)
 ****
 33  36  37 0
 6-311+G(2d,p)
 ****
 1  2  13  14  15  16  17  18  19  20  21  23  24  26 0
 3-21G
 ****
 27  28  34  35  38  39  40  41  42  43  44  45  46  47  48 0
 3-21G
 ****


