%nproc=1
%NoSave
%Mem=1900MB
#P OB98/GEN NMR

erre ene a

0 1
  C     -113.917     -11.572    -175.009
  O     -113.548     -12.159    -173.778
  H     -113.908     -12.345    -175.782
  H     -113.205     -10.790    -175.285
  H     -114.923     -11.153    -174.940
  P     -113.441     -11.180    -172.512
  C     -111.588      -9.637    -171.546
  O     -112.049     -10.395    -172.655
  C     -110.466      -8.706    -171.995
  O     -111.007      -7.646    -172.815
  C     -109.746      -8.006    -170.852
  O     -108.809      -8.850    -170.207
  C     -109.089      -6.850    -171.590
  O     -107.845      -7.249    -172.191
  C     -110.139      -6.503    -172.667
  N     -110.882      -5.290    -172.340
  C     -110.231      -4.093    -172.617
  O     -109.103      -4.034    -173.104
  N     -110.909      -2.952    -172.277
  C     -112.127      -2.898    -171.667
  O     -112.647      -1.844    -171.324
  C     -112.774      -4.195    -171.412
  C     -112.128      -5.317    -171.746
  O     -113.187     -12.189    -171.295
  O     -114.631     -10.309    -172.284
  H     -114.010     -12.309    -170.787
  H     -107.540      -6.482    -172.715
  H     -110.449      -2.075    -172.460
  H     -113.745      -4.188    -170.935
  H     -112.575      -6.285    -171.548
  H     -109.652      -6.350    -173.639
  H     -108.862      -6.022    -170.920
  H     -110.471      -7.600    -170.137
  H     -109.756      -9.283    -172.604
  H     -111.202     -10.314    -170.777
  H     -112.425      -9.069    -171.128
  P     -107.825      -8.211    -169.114
  C     -105.710      -6.662    -169.247
  O     -106.767      -7.317    -169.922
  O     -106.987      -9.497    -168.664
  O     -108.534      -7.503    -168.012
  H     -106.819     -10.117    -169.395
  H     -105.117      -6.120    -169.954
  H     -105.100      -7.388    -168.751
  H     -106.114      -5.983    -168.526

 6  7  8  9  10  11  12  13  14  15  16  27  31  32  33  34  35 0
 6-311+G(2d,p)
 ****
 36  37 0
 6-311+G(2d,p)
 ****
 1  2  3  4  5  17  18  19  20  21  22  23  24  25 0
 3-21G
 ****
 26  28  29  30  38  39  40  41  42  43  44  45 0
 3-21G
 ****


