%nproc=1
%NoSave
%Mem=1900MB
#P OB98/GEN NMR

erre ene a

0 1
  C      362.622    -167.815    -488.303
  O      362.545    -168.609    -489.501
  P      363.130    -167.969    -490.848
  C      362.327    -166.304    -492.677
  O      361.998    -167.020    -491.493
  C      361.285    -165.213    -492.986
  O      360.052    -165.817    -493.483
  C      360.900    -164.366    -491.776
  O      360.544    -163.046    -492.224
  C      359.654    -165.062    -491.252
  O      358.887    -164.207    -490.401
  C      358.990    -165.434    -492.585
  N      354.141    -166.520    -491.655
  C      354.790    -165.300    -491.688
  N      354.024    -164.197    -491.483
  N      356.079    -165.165    -491.915
  C      356.703    -166.348    -492.137
  C      356.172    -167.615    -492.113
  C      354.757    -167.744    -491.843
  O      354.134    -168.809    -491.779
  N      357.142    -168.568    -492.366
  C      358.255    -167.873    -492.530
  N      358.029    -166.514    -492.444
  O      363.182    -169.228    -491.854
  O      364.478    -167.351    -490.697
  H      358.004    -164.642    -490.273
  H      364.105    -169.493    -491.999
  H      353.153    -166.563    -491.462
  H      359.228    -168.286    -492.718
  H      358.454    -164.588    -493.027
  H      359.926    -165.960    -490.685
  H      353.021    -164.234    -491.361
  H      361.692    -164.289    -491.001
  H      354.477    -163.295    -491.549
  H      361.674    -164.570    -493.778
  H      362.397    -166.992    -493.530
  H      363.330    -165.868    -492.566
  P      361.327    -161.812    -491.566
  C      361.035    -160.412    -489.396
  O      360.559    -161.488    -490.204
  O      360.948    -160.582    -492.516
  O      362.808    -162.007    -491.456
  H      361.639    -159.896    -492.474
  H      360.384    -159.550    -489.522
  H      362.060    -160.135    -489.664
  H      361.013    -160.718    -488.354
  H      362.198    -168.360    -487.486
  H      362.079    -166.904    -488.443
  H      363.646    -167.590    -488.089

 3  4  5  6  7  8  9  10  11  12  23  26  30  31 0
 6-311+G(2d,p)
 ****
 33  35  36  37  38 0
 6-311+G(2d,p)
 ****
 1  2  13  14  15  16  17  18  19  20  21  22  24  25 0
 3-21G
 ****
 27  28  29  32  34  39  40  41  42  43  44  45  46  47  48  49 0
 3-21G
 ****


