%nproc=1
%NoSave
%Mem=1900MB
#P OB98/GEN NMR

erre ene a

0 1
  C      387.839      33.641     656.456
  O      386.523      34.207     656.350
  P      385.279      33.376     655.760
  C      384.207      32.847     658.048
  O      384.809      32.313     656.867
  C      383.210      31.874     658.672
  O      383.870      30.637     659.048
  C      382.532      32.377     659.941
  O      381.489      33.282     659.616
  C      382.075      31.077     660.584
  O      380.855      30.619     659.986
  C      383.234      30.130     660.238
  N      384.125      28.068     664.835
  C      383.067      27.982     663.995
  N      382.899      28.565     662.787
  C      383.994      29.284     662.457
  C      385.147      29.458     663.206
  C      385.190      28.812     664.453
  N      386.264      28.910     665.311
  N      386.039      30.280     662.550
  C      385.438      30.575     661.409
  N      384.208      29.995     661.306
  O      385.519      32.785     654.408
  O      384.075      34.430     655.718
  H      380.118      30.976     660.509
  H      383.447      34.182     655.008
  H      382.246      27.365     664.340
  H      385.861      31.200     660.634
  H      382.873      29.125     659.994
  H      381.893      31.176     661.661
  H      383.269      32.871     660.590
  H      382.461      31.620     657.912
  H      383.690      33.782     657.774
  H      386.208      28.441     666.205
  H      387.043      29.499     665.060
  H      385.003      33.084     658.766
  P      381.815      34.835     659.382
  C      381.614      34.743     656.823
  O      382.474      34.967     657.926
  O      382.554      35.513     660.484
  O      380.367      35.496     659.163
  H      380.390      36.417     659.471
  H      381.495      33.666     656.671
  H      382.065      35.180     655.930
  H      380.634      35.198     656.987
  H      388.507      34.366     656.873
  H      388.184      33.356     655.484
  H      387.807      32.780     657.090

 3  4  5  6  7  8  9  10  11  12  22  25  29  30  31  32 0
 6-311+G(2d,p)
 ****
 33  36  37 0
 6-311+G(2d,p)
 ****
 1  2  13  14  15  16  17  18  19  20  21  23  24  26 0
 3-21G
 ****
 27  28  34  35  38  39  40  41  42  43  44  45  46  47  48 0
 3-21G
 ****


