%nproc=1
%NoSave
%Mem=1900MB
#P OB98/GEN NMR

erre ene a

0 1
  C      308.701     177.072     172.810
  O      307.378     177.286     173.304
  P      306.141     177.154     172.296
  C      305.860     174.629     172.724
  O      306.077     175.643     171.753
  C      305.239     173.382     172.079
  O      303.918     173.684     171.545
  C      306.081     172.842     170.915
  O      305.977     171.411     170.838
  C      305.387     173.422     169.698
  O      305.694     172.689     168.515
  C      303.928     173.348     170.143
  N      300.453     173.684     166.397
  C      301.072     172.620     166.956
  N      301.967     172.605     167.964
  C      302.200     173.851     168.411
  C      301.638     175.029     167.947
  C      300.729     174.917     166.882
  N      300.121     176.003     166.294
  N      302.123     176.115     168.647
  C      302.999     175.604     169.487
  N      303.058     174.239     169.406
  O      306.049     178.205     171.242
  O      304.875     177.218     173.279
  H      306.661     172.568     168.489
  H      304.182     177.774     172.872
  H      300.815     171.653     166.533
  H      303.623     176.173     170.160
  H      303.524     172.333     170.044
  H      305.704     174.461     169.551
  H      307.140     173.115     170.955
  H      305.106     172.613     172.846
  H      305.204     175.006     173.510
  H      299.575     175.835     165.462
  H      300.429     176.931     166.545
  H      306.811     174.392     173.213
  P      307.153     170.579     171.560
  C      306.035     169.489     173.656
  O      306.777     170.558     173.115
  O      308.522     171.062     171.217
  O      306.854     169.088     171.059
  H      305.934     168.797     171.173
  H      305.998     169.599     174.742
  H      306.503     168.530     173.419
  H      305.013     169.507     173.267
  H      309.404     177.198     173.607
  H      308.911     177.779     172.035
  H      308.779     176.079     172.419

 3  4  5  6  7  8  9  10  11  12  22  25  29  30  31  32 0
 6-311+G(2d,p)
 ****
 33  36  37 0
 6-311+G(2d,p)
 ****
 1  2  13  14  15  16  17  18  19  20  21  23  24  26 0
 3-21G
 ****
 27  28  34  35  38  39  40  41  42  43  44  45  46  47  48 0
 3-21G
 ****


