%nproc=1
%NoSave
%Mem=1900MB
#P OB98/GEN NMR

erre ene a

0 1
  C     -152.509     155.018     307.550
  O     -152.666     154.581     308.885
  H     -151.738     155.794     307.526
  H     -153.444     155.446     307.180
  H     -152.192     154.191     306.908
  P     -153.673     153.369     309.191
  C     -155.324     154.962     310.350
  O     -154.528     153.793     310.480
  C     -155.751     155.481     311.722
  O     -154.657     156.238     312.296
  C     -156.984     156.392     311.680
  O     -157.783     156.126     312.834
  C     -156.393     157.784     311.779
  O     -157.308     158.723     312.342
  C     -155.157     157.542     312.641
  N     -153.237     161.874     314.400
  C     -154.222     161.059     314.923
  N     -154.806     161.467     316.071
  N     -154.608     159.940     314.364
  C     -153.930     159.648     313.227
  C     -152.939     160.371     312.610
  C     -152.530     161.613     313.232
  O     -151.674     162.382     312.811
  N     -152.515     159.755     311.455
  C     -153.258     158.664     311.377
  N     -154.140     158.559     312.422
  O     -153.037     152.020     309.287
  O     -154.738     153.439     308.002
  H     -157.947     158.962     311.635
  H     -154.535     152.777     307.315
  H     -152.984     162.730     314.863
  H     -153.202     157.925     310.586
  H     -155.389     157.552     313.716
  H     -156.111     158.138     310.778
  H     -154.550     162.306     316.564
  H     -157.582     156.258     310.773
  H     -155.514     160.872     316.485
  H     -155.923     154.620     312.382
  H     -156.212     154.709     309.758
  H     -154.753     155.732     309.818
  P     -159.162     155.327     312.653
  C     -160.585     156.280     314.579
  O     -159.841     155.166     314.098
  O     -159.082     154.078     311.840
  O     -160.109     156.417     311.946
  H     -160.754     155.952     311.380
  H     -160.985     156.051     315.545
  H     -161.386     156.493     313.902
  H     -159.943     157.133     314.652

 6  7  8  9  10  11  12  13  14  15  26  29  33  34 0
 6-311+G(2d,p)
 ****
 36  38  39  40  41 0
 6-311+G(2d,p)
 ****
 1  2  3  4  5  16  17  18  19  20  21  22  23  24  25 0
 3-21G
 ****
 27  28  30  31  32  35  37  42  43  44  45  46  47 0
 3-21G
 ****
 48  49 0
 3-21G
 ****


