%nproc=1
%NoSave
%Mem=1900MB
#P OB98/GEN NMR

erre ene a

0 1
  C     -153.871     355.216    -109.704
  O     -154.880     354.231    -109.458
  P     -156.251     354.626    -108.723
  C     -155.798     354.427    -106.210
  O     -155.904     355.321    -107.314
  C     -155.108     355.056    -104.989
  O     -155.866     356.184    -104.477
  C     -154.887     354.098    -103.812
  O     -153.665     354.513    -103.194
  C     -156.074     354.397    -102.918
  O     -155.880     353.953    -101.583
  C     -156.199     355.916    -103.102
  N     -157.530     356.410    -102.759
  C     -157.638     357.185    -101.600
  O     -156.651     357.380    -100.889
  N     -158.867     357.684    -101.252
  C     -159.915     357.349    -101.941
  N     -161.110     357.849    -101.529
  C     -159.859     356.460    -103.121
  C     -158.647     356.047    -103.472
  O     -157.256     353.527    -108.640
  O     -156.816     355.845    -109.604
  H     -155.682     352.986    -101.604
  H     -157.789     355.844    -109.559
  H     -160.761     356.185    -103.651
  H     -158.498     355.391    -104.328
  H     -155.462     356.442    -102.478
  H     -156.966     353.896    -103.311
  H     -154.833     353.047    -104.110
  H     -154.144     355.458    -105.329
  H     -161.109     358.433    -100.701
  H     -155.228     353.551    -106.529
  H     -161.995     357.565    -101.919
  H     -156.799     354.087    -105.933
  P     -152.405     353.533    -103.053
  C     -152.636     353.257    -100.512
  O     -152.681     352.610    -101.771
  O     -151.073     354.214    -103.053
  O     -152.534     352.511    -104.283
  H     -151.674     352.074    -104.424
  H     -153.041     352.592     -99.752
  H     -153.235     354.180    -100.530
  H     -151.603     353.504    -100.261
  H     -153.040     354.759    -110.200
  H     -153.546     355.634    -108.774
  H     -154.273     355.991    -110.322

 3  4  5  6  7  8  9  10  11  12  13  23  27  28  29  30  32 0
 6-311+G(2d,p)
 ****
 34  35 0
 6-311+G(2d,p)
 ****
 1  2  14  15  16  17  18  19  20  21  22  24  25  26 0
 3-21G
 ****
 31  33  36  37  38  39  40  41  42  43  44  45  46 0
 3-21G
 ****


