%nproc=1
%NoSave
%Mem=1900MB
#P OB98/GEN NMR

erre ene a

0 1
  C      120.807      63.155    -119.819
  O      121.330      63.970    -118.762
  P      122.453      63.461    -117.729
  C      120.986      63.520    -115.608
  O      121.742      62.713    -116.498
  C      121.346      63.246    -114.140
  O      120.691      62.021    -113.681
  C      122.857      63.081    -113.875
  O      123.124      63.708    -112.616
  C      123.001      61.565    -113.787
  O      124.188      61.144    -113.144
  C      121.709      61.230    -113.029
  N      121.337      59.816    -113.020
  C      121.371      59.141    -111.793
  O      121.755      59.695    -110.763
  N      120.985      57.819    -111.759
  C      120.605      57.224    -112.848
  N      120.223      55.920    -112.741
  C      120.571      57.890    -114.164
  C      120.943      59.169    -114.175
  O      123.402      64.536    -117.299
  O      123.237      62.290    -118.492
  H      124.182      62.319    -118.243
  H      124.299      61.676    -112.334
  H      120.243      57.359    -115.045
  H      120.921      59.740    -115.099
  H      121.787      61.593    -111.996
  H      122.999      61.155    -114.801
  H      123.489      63.543    -114.640
  H      120.941      64.064    -113.530
  H      120.252      55.499    -111.816
  H      119.923      63.298    -115.753
  H      119.904      55.364    -113.521
  H      121.154      64.578    -115.850
  P      124.108      64.975    -112.552
  C      126.012      63.589    -111.426
  O      125.612      64.419    -112.501
  O      123.898      65.480    -111.042
  O      123.824      66.086    -113.512
  H      124.107      66.433    -110.989
  H      126.589      62.749    -111.824
  H      125.160      63.197    -110.864
  H      126.653      64.169    -110.749
  H      120.076      63.710    -120.369
  H      120.352      62.280    -119.403
  H      121.603      62.866    -120.474

 3  4  5  6  7  8  9  10  11  12  13  24  27  28  29  30  32 0
 6-311+G(2d,p)
 ****
 34  35 0
 6-311+G(2d,p)
 ****
 1  2  14  15  16  17  18  19  20  21  22  23  25  26 0
 3-21G
 ****
 31  33  36  37  38  39  40  41  42  43  44  45  46 0
 3-21G
 ****


