%nproc=1
%NoSave
%Mem=1900MB
#P OB98/GEN NMR

erre ene a

0 1
  C       93.298    -134.922    -285.830
  O       93.679    -135.915    -284.893
  H       92.301    -134.558    -285.572
  H       93.268    -135.357    -286.831
  H       94.000    -134.081    -285.808
  P       95.224    -136.345    -284.878
  C       94.439    -138.020    -286.704
  O       95.305    -137.780    -285.602
  C       94.351    -139.519    -286.991
  O       93.405    -139.775    -288.057
  C       95.671    -140.152    -287.425
  O       96.480    -140.493    -286.303
  C       95.162    -141.408    -288.124
  O       94.772    -142.392    -287.142
  C       93.919    -140.880    -288.856
  N       94.654    -142.248    -293.690
  C       94.501    -143.032    -292.557
  N       94.552    -144.372    -292.743
  N       94.309    -142.549    -291.352
  C       94.299    -141.188    -291.322
  C       94.453    -140.308    -292.371
  C       94.643    -140.856    -293.696
  O       94.771    -140.204    -294.729
  N       94.386    -139.011    -291.947
  C       94.214    -139.101    -290.639
  N       94.164    -140.406    -290.208
  O       95.481    -136.686    -283.335
  O       96.180    -135.314    -285.376
  H       94.703    -143.249    -287.605
  H       95.962    -135.941    -282.923
  H       94.810    -142.671    -294.591
  H       94.119    -138.259    -289.968
  H       93.125    -141.632    -288.920
  H       95.919    -141.871    -288.758
  H       94.716    -144.809    -293.637
  H       96.217    -139.527    -288.146
  H       94.441    -144.963    -291.926
  H       93.961    -140.010    -286.090
  H       94.836    -137.504    -287.583
  H       93.448    -137.626    -286.469
  P       97.982    -139.910    -286.252
  C       98.757    -141.558    -288.093
  O       98.955    -141.078    -286.779
  O       98.282    -139.852    -284.680
  O       98.170    -138.578    -286.892
  H       98.341    -138.923    -284.389
  H       99.471    -142.326    -288.303
  H       98.882    -140.755    -288.789
  H       97.768    -141.956    -288.182

 6  7  8  9  10  11  12  13  14  15  26  29  33  34 0
 6-311+G(2d,p)
 ****
 36  38  39  40  41 0
 6-311+G(2d,p)
 ****
 1  2  3  4  5  16  17  18  19  20  21  22  23  24  25 0
 3-21G
 ****
 27  28  30  31  32  35  37  42  43  44  45  46  47 0
 3-21G
 ****
 48  49 0
 3-21G
 ****


