%nproc=1
%NoSave
%Mem=1900MB
#P OB98/GEN NMR

erre ene a

0 1
  C      -74.349     222.062      21.063
  O      -75.010     222.003      22.312
  H      -74.213     223.112      20.790
  H      -74.948     221.570      20.292
  H      -73.368     221.585      21.137
  P      -75.340     220.539      22.880
  C      -75.343     219.547      25.259
  O      -75.389     220.733      24.475
  C      -75.621     219.866      26.728
  O      -74.424     220.441      27.308
  C      -76.762     220.866      26.928
  O      -77.516     220.495      28.081
  C      -76.043     222.178      27.191
  O      -76.836     223.090      27.946
  C      -74.778     221.702      27.902
  N      -73.046     226.262      29.397
  C      -74.088     225.510      29.813
  N      -74.469     224.293      29.369
  C      -73.620     223.843      28.428
  C      -72.521     224.496      27.902
  C      -72.242     225.771      28.423
  N      -71.200     226.555      27.988
  N      -71.926     223.727      26.920
  C      -72.648     222.623      26.865
  N      -73.693     222.655      27.747
  O      -74.453     219.442      22.397
  O      -76.887     220.386      22.504
  H      -77.692     223.208      27.486
  H      -77.385     221.201      22.702
  H      -74.699     225.943      30.600
  H      -72.465     221.786      26.200
  H      -74.930     221.553      28.978
  H      -75.793     222.659      26.237
  H      -77.420     220.930      26.060
  H      -75.814     218.928      27.261
  H      -74.360     219.072      25.166
  H      -71.062     227.453      28.427
  H      -70.578     226.200      27.275
  H      -76.100     218.858      24.870
  P      -78.643     219.367      27.925
  C      -80.429     218.281      29.439
  O      -79.597     219.415      29.215
  O      -78.162     218.011      27.532
  O      -79.590     219.983      26.784
  H      -79.906     219.260      26.210
  H      -81.012     218.435      30.323
  H      -79.820     217.410      29.561
  H      -81.081     218.146      28.601

 6  7  8  9  10  11  12  13  14  15  25  28  32  33  34  35 0
 6-311+G(2d,p)
 ****
 36  39  40 0
 6-311+G(2d,p)
 ****
 1  2  3  4  5  16  17  18  19  20  21  22  23  24 0
 3-21G
 ****
 26  27  29  30  31  37  38  41  42  43  44  45  46  47 0
 3-21G
 ****
 48 0
 3-21G
 ****


