%nproc=1
%NoSave
%Mem=1900MB
#P OB98/GEN NMR

erre ene a

0 1
  C       56.167      88.526     141.390
  O       55.392      88.623     142.570
  H       55.667      87.842     140.701
  H       57.162      88.131     141.616
  H       56.253      89.504     140.910
  P       55.934      89.540     143.766
  C       56.598      87.452     145.136
  O       57.038      88.665     144.536
  C       57.687      86.883     146.042
  O       58.892      86.641     145.290
  C       58.080      87.800     147.201
  O       57.160      87.678     148.271
  C       59.450      87.238     147.545
  O       59.299      86.010     148.286
  C       60.028      86.937     146.148
  N       64.652      88.910     145.443
  C       64.254      87.846     146.230
  N       65.220      87.243     146.954
  N       63.018      87.421     146.308
  C       62.150      88.166     145.585
  C       62.421      89.250     144.782
  C       63.801      89.669     144.652
  O       64.201      90.592     143.945
  N       61.272      89.806     144.280
  C       60.309      89.024     144.736
  N       60.790      88.015     145.543
  O       54.892      90.131     144.667
  O       56.807      90.667     143.036
  H       60.195      85.676     148.474
  H       56.269      91.456     142.838
  H       65.616      89.197     145.429
  H       59.255      89.136     144.510
  H       60.677      86.052     146.152
  H       60.045      87.915     148.160
  H       66.152      87.613     147.052
  H       58.197      88.838     146.871
  H       64.936      86.496     147.580
  H       57.338      85.910     146.414
  H       56.367      86.749     144.328
  H       55.688      87.624     145.720
  P       57.001      88.832     149.379
  C       58.586      87.627     151.031
  O       58.351      88.782     150.242
  O       55.747      88.764     150.179
  O       57.182      90.193     148.560
  H       56.341      90.508     148.142
  H       59.517      87.732     151.548
  H       58.625      86.765     150.399
  H       57.794      87.513     151.741

 6  7  8  9  10  11  12  13  14  15  26  29  33  34 0
 6-311+G(2d,p)
 ****
 36  38  39  40  41 0
 6-311+G(2d,p)
 ****
 1  2  3  4  5  16  17  18  19  20  21  22  23  24  25 0
 3-21G
 ****
 27  28  30  31  32  35  37  42  43  44  45  46  47 0
 3-21G
 ****
 48  49 0
 3-21G
 ****


