%nproc=1
%NoSave
%Mem=1900MB
#P OB98/GEN NMR

erre ene a

0 1
  C       -4.919    -252.239    -584.734
  O       -5.671    -251.046    -584.808
  H       -5.576    -253.103    -584.858
  H       -4.180    -252.239    -585.539
  H       -4.395    -252.304    -583.776
  P       -6.699    -250.762    -583.609
  C       -9.214    -251.291    -583.208
  O       -8.127    -251.284    -584.125
  C      -10.524    -250.983    -583.930
  O      -10.467    -249.626    -584.445
  C      -10.804    -251.919    -585.111
  O      -12.207    -252.203    -585.150
  C      -10.414    -251.088    -586.319
  O      -11.091    -251.502    -587.503
  C      -10.774    -249.682    -585.851
  N       -9.883    -247.677    -590.463
  C      -10.755    -248.619    -590.040
  N      -10.934    -249.092    -588.788
  C      -10.127    -248.453    -587.920
  C       -9.188    -247.478    -588.206
  C       -9.070    -247.091    -589.551
  N       -8.160    -246.159    -589.999
  N       -8.530    -247.091    -587.051
  C       -9.064    -247.828    -586.094
  N      -10.029    -248.663    -586.573
  O       -6.845    -249.165    -583.656
  O       -6.276    -251.247    -582.264
  H      -10.962    -250.814    -588.186
  H       -6.078    -248.757    -583.214
  H      -11.387    -249.052    -590.809
  H       -8.779    -247.793    -585.051
  H      -11.843    -249.452    -585.981
  H       -9.333    -251.172    -586.496
  H      -10.244    -252.854    -585.055
  H      -11.340    -251.009    -583.199
  H       -9.032    -250.533    -582.435
  H       -8.105    -245.987    -590.988
  H       -7.503    -245.760    -589.340
  H       -9.275    -252.279    -582.727
  P      -12.659    -253.673    -584.676
  C      -12.514    -256.097    -585.570
  O      -12.157    -254.738    -585.769
  O      -14.249    -253.644    -584.868
  O      -12.284    -253.979    -583.265
  H      -14.688    -253.968    -584.056
  H      -12.117    -256.690    -586.367
  H      -13.580    -256.187    -585.555
  H      -12.114    -256.438    -584.638

 6  7  8  9  10  11  12  13  14  15  25  28  32  33  34  35 0
 6-311+G(2d,p)
 ****
 36  39  40 0
 6-311+G(2d,p)
 ****
 1  2  3  4  5  16  17  18  19  20  21  22  23  24 0
 3-21G
 ****
 26  27  29  30  31  37  38  41  42  43  44  45  46  47 0
 3-21G
 ****
 48 0
 3-21G
 ****


