%nproc=1
%NoSave
%Mem=1900MB
#P OB98/GEN NMR

erre ene a

0 1
  C       51.748    -202.913     210.103
  O       53.047    -202.917     209.493
  P       54.179    -201.828     209.826
  C       55.036    -202.739     212.083
  O       55.332    -202.516     210.712
  C       55.975    -203.779     212.709
  O       55.929    -205.021     211.944
  C       57.450    -203.338     212.782
  O       57.962    -203.827     214.027
  C       58.059    -204.077     211.598
  O       59.469    -204.189     211.660
  C       57.302    -205.407     211.705
  N       57.398    -206.281     210.539
  C       58.267    -207.376     210.617
  O       58.969    -207.572     211.608
  N       58.336    -208.235     209.544
  C       57.617    -208.017     208.488
  N       57.727    -208.909     207.467
  C       56.708    -206.866     208.355
  C       56.646    -206.049     209.408
  O       53.644    -200.568     210.426
  O       54.902    -201.523     208.430
  H       55.156    -200.578     208.396
  H       59.694    -204.687     212.467
  H       56.119    -206.726     207.462
  H       55.977    -205.195     209.401
  H       57.644    -205.947     212.596
  H       57.805    -203.537     210.679
  H       57.585    -202.252     212.744
  H       55.598    -204.014     213.714
  H       58.356    -209.695     207.598
  H       54.005    -203.107     212.161
  H       57.211    -208.842     206.604
  H       55.101    -201.788     212.626
  P       58.061    -202.837     215.288
  C       55.785    -202.815     216.560
  O       57.067    -203.393     216.417
  O       57.269    -201.547     214.757
  O       59.440    -202.450     215.717
  H       57.580    -200.758     215.233
  H       55.048    -203.614     216.682
  H       55.504    -202.211     215.694
  H       55.775    -202.185     217.453
  H       51.173    -203.732     209.723
  H       51.251    -201.993     209.877
  H       51.852    -203.011     211.163

 3  4  5  6  7  8  9  10  11  12  13  24  27  28  29  30  32 0
 6-311+G(2d,p)
 ****
 34  35 0
 6-311+G(2d,p)
 ****
 1  2  14  15  16  17  18  19  20  21  22  23  25  26 0
 3-21G
 ****
 31  33  36  37  38  39  40  41  42  43  44  45  46 0
 3-21G
 ****


