%nproc=1
%NoSave
%Mem=1900MB
#P OB98/GEN NMR

erre ene a

0 1
  C     -198.986      66.546    -133.732
  O     -199.657      66.195    -134.934
  P     -200.256      67.391    -135.824
  C     -202.615      67.081    -134.788
  O     -201.510      67.955    -134.998
  C     -203.929      67.844    -134.895
  O     -204.002      68.837    -133.855
  C     -204.114      68.607    -136.199
  O     -204.556      67.761    -137.250
  C     -205.194      69.604    -135.805
  O     -206.485      68.971    -135.877
  C     -204.833      69.919    -134.344
  N     -205.257      74.924    -133.700
  C     -206.240      73.960    -133.811
  N     -207.517      74.388    -133.708
  N     -205.992      72.692    -134.006
  C     -204.671      72.405    -134.048
  C     -203.605      73.272    -133.953
  C     -203.892      74.680    -133.789
  O     -203.066      75.588    -133.750
  N     -202.410      72.604    -134.026
  C     -202.749      71.335    -134.126
  N     -204.110      71.164    -134.175
  O     -200.938      66.623    -137.050
  O     -199.259      68.399    -136.283
  H     -206.434      68.155    -135.343
  H     -200.980      67.212    -137.829
  H     -205.504      75.884    -133.533
  H     -202.047      70.514    -134.167
  H     -205.727      69.948    -133.711
  H     -205.229      70.478    -136.463
  H     -207.764      75.325    -133.429
  H     -203.200      69.145    -136.475
  H     -208.248      73.690    -133.750
  H     -204.751      67.133    -134.744
  H     -202.540      66.641    -133.789
  H     -202.574      66.277    -135.530
  P     -204.315      68.290    -138.748
  C     -206.811      67.955    -139.388
  O     -205.734      68.859    -139.227
  O     -204.134      66.942    -139.588
  O     -203.150      69.210    -138.895
  H     -203.598      67.111    -140.386
  H     -206.787      67.163    -138.635
  H     -206.763      67.509    -140.386
  H     -207.750      68.502    -139.289
  H     -198.641      65.659    -133.244
  H     -199.660      67.069    -133.087
  H     -198.151      67.175    -133.960

 3  4  5  6  7  8  9  10  11  12  23  26  30  31  33  0
 6-311+G(2d,p)
 ****
 35  36  37  38 0
 6-311+G(2d,p)
 ****
 1  2  13  14  15  16  17  18  19  20  21  22  24  25  27  28  29 0
 3-21G
 ****
 32  34  39  40  41  42  43  44  45  46  47  48  49 0
 3-21G
 ****


