%nproc=1
%NoSave
%Mem=1900MB
#P OB98/GEN NMR

erre ene a

0 1
  C     -452.718    -655.740    -285.137
  O     -452.339    -654.465    -284.618
  P     -453.449    -653.304    -284.676
  C     -452.138    -651.957    -282.889
  O     -452.771    -651.937    -284.161
  C     -450.828    -652.751    -282.926
  O     -449.896    -652.165    -283.885
  C     -450.102    -652.813    -281.586
  O     -449.440    -654.084    -281.495
  C     -449.058    -651.728    -281.707
  O     -448.001    -651.911    -280.760
  C     -448.675    -651.893    -283.175
  N     -444.237    -649.392    -283.554
  C     -444.567    -650.556    -282.962
  N     -445.781    -651.142    -282.884
  C     -446.702    -650.420    -283.548
  C     -446.510    -649.203    -284.193
  C     -445.207    -648.691    -284.185
  N     -444.872    -647.483    -284.763
  N     -447.701    -648.741    -284.719
  C     -448.596    -649.660    -284.386
  N     -448.025    -650.705    -283.713
  O     -454.449    -653.700    -283.487
  O     -454.163    -653.211    -285.981
  H     -447.363    -651.173    -280.868
  H     -455.290    -654.034    -283.859
  H     -443.755    -651.087    -282.476
  H     -449.638    -649.614    -284.608
  H     -447.983    -652.729    -283.338
  H     -449.511    -650.741    -281.531
  H     -450.755    -652.674    -280.708
  H     -451.052    -653.775    -283.274
  H     -452.806    -652.402    -282.141
  H     -443.919    -647.165    -284.685
  H     -445.595    -646.924    -285.189
  H     -451.966    -650.924    -282.564
  P     -449.949    -655.076    -280.338
  C     -449.025    -657.092    -281.702
  O     -449.052    -656.396    -280.453
  O     -451.400    -655.554    -280.853
  O     -450.008    -654.453    -278.989
  H     -451.948    -655.809    -280.093
  H     -447.996    -657.418    -281.887
  H     -449.354    -656.454    -282.526
  H     -449.667    -657.960    -281.625
  H     -451.899    -656.422    -285.042
  H     -452.981    -655.641    -286.169
  H     -453.558    -656.113    -284.589

 3  4  5  6  7  8  9  10  11  12  22  25  29  30  31  32 0
 6-311+G(2d,p)
 ****
 33  36  37 0
 6-311+G(2d,p)
 ****
 1  2  13  14  15  16  17  18  19  20  21  23  24  26 0
 3-21G
 ****
 27  28  34  35  38  39  40  41  42  43  44  45  46  47  48 0
 3-21G
 ****


