%nproc=1
%NoSave
%Mem=1900MB
#P OB98/GEN NMR

erre ene a

0 1
  C       10.739     -55.954     142.240
  O       11.967     -55.267     142.331
  P       12.636     -54.583     141.048
  C       13.936     -56.807     140.994
  O       13.980     -55.409     140.731
  C       15.283     -57.454     140.652
  O       15.201     -58.885     140.942
  C       15.665     -57.293     139.166
  O       16.965     -56.746     138.947
  C       15.441     -58.690     138.611
  O       16.141     -58.949     137.408
  C       15.792     -59.565     139.818
  N       15.305     -60.935     139.678
  C       16.068     -61.804     138.903
  O       17.117     -61.497     138.346
  N       15.553     -63.057     138.725
  C       14.326     -63.485     139.136
  O       13.885     -64.590     138.855
  C       13.547     -62.510     139.915
  C       14.070     -61.308     140.169
  O       12.831     -53.107     141.138
  O       11.676     -55.042     139.851
  H       15.686     -59.679     136.948
  H       11.605     -56.004     139.729
  H       16.095     -63.696     138.166
  H       12.565     -62.817     140.245
  H       13.519     -60.570     140.741
  H       16.868     -59.599     139.988
  H       14.372     -58.793     138.385
  H       14.993     -56.589     138.662
  H       16.042     -57.012     141.304
  H       13.156     -57.258     140.376
  H       13.668     -56.980     142.042
  P       17.262     -55.319     138.286
  C       18.025     -56.580     136.144
  O       18.271     -55.535     137.064
  O       17.652     -54.244     139.244
  O       15.884     -54.952     137.557
  H       15.779     -53.984     137.525
  H       18.981     -56.911     135.728
  H       17.401     -56.204     135.330
  H       17.533     -57.431     136.623
  H       10.470     -56.333     143.204
  H       10.835     -56.767     141.551
  H        9.980     -55.283     141.896

 3  4  5  6  7  8  9  10  11  12  13  23  28  29  30  31  32 0
 6-311+G(2d,p)
 ****
 33  34 0
 6-311+G(2d,p)
 ****
 1  2  14  15  16  17  18  19  20  21  22  24  25  26  27 0
 3-21G
 ****
 35  36  37  38  39  40  41  42  43  44  45 0
 3-21G
 ****


