%nproc=1
%NoSave
%Mem=1900MB
#P OB98/GEN NMR

erre ene a

0 1
  C      550.283    -208.997    -816.579
  O      549.390    -209.903    -817.231
  P      547.862    -209.985    -816.762
  C      548.079    -211.789    -814.909
  O      547.797    -210.427    -815.217
  C      548.093    -211.988    -813.390
  O      549.068    -211.127    -812.749
  C      546.765    -211.613    -812.735
  O      545.656    -212.461    -812.997
  C      547.163    -211.428    -811.278
  O      547.225    -212.670    -810.576
  C      548.582    -210.819    -811.417
  N      548.608    -209.376    -811.177
  C      549.046    -208.984    -809.907
  O      549.332    -209.780    -809.017
  N      549.081    -207.641    -809.682
  C      548.710    -206.656    -810.567
  O      548.743    -205.459    -810.301
  C      548.243    -207.142    -811.887
  C      548.213    -208.454    -812.114
  O      546.943    -210.729    -817.668
  O      547.438    -208.426    -816.693
  H      547.526    -212.471    -809.665
  H      546.532    -208.354    -817.053
  H      549.383    -207.325    -808.765
  H      547.926    -206.382    -812.614
  H      547.861    -208.827    -813.081
  H      549.270    -211.306    -810.713
  H      546.456    -210.789    -810.742
  H      546.471    -210.616    -813.118
  H      548.371    -213.024    -813.170
  H      549.044    -212.075    -815.332
  H      547.325    -212.419    -815.385
  P      544.295    -211.949    -813.658
  C      542.344    -213.094    -812.363
  O      543.152    -211.942    -812.517
  O      543.914    -212.509    -814.990
  O      544.587    -210.377    -813.812
  H      544.125    -210.048    -814.624
  H      541.623    -212.896    -811.564
  H      542.972    -213.955    -812.080
  H      541.808    -213.308    -813.291
  H      551.255    -209.076    -817.019
  H      550.341    -209.240    -815.539
  H      549.921    -207.996    -816.691

 3  4  5  6  7  8  9  10  11  12  13  23  28  29  30  31  32 0
 6-311+G(2d,p)
 ****
 33  34 0
 6-311+G(2d,p)
 ****
 1  2  14  15  16  17  18  19  20  21  22  24  25  26  27 0
 3-21G
 ****
 35  36  37  38  39  40  41  42  43  44  45 0
 3-21G
 ****


