%nproc=1
%NoSave
%Mem=1900MB
#P OB98/GEN NMR

erre ene a

0 1
  C     -132.714    -203.485    -209.288
  O     -132.685    -202.181    -208.748
  H     -133.421    -203.500    -210.124
  H     -133.051    -204.200    -208.534
  H     -131.729    -203.776    -209.661
  P     -131.603    -201.842    -207.616
  C     -129.785    -200.739    -209.072
  O     -130.163    -201.884    -208.317
  C     -128.263    -200.624    -209.113
  O     -127.745    -200.437    -207.775
  C     -127.566    -201.869    -209.647
  O     -127.680    -201.965    -211.053
  C     -126.155    -201.650    -209.128
  O     -125.420    -200.762    -209.980
  C     -126.413    -200.995    -207.753
  N     -126.260    -201.949    -206.654
  C     -124.966    -202.138    -206.179
  O     -123.985    -201.546    -206.626
  N     -124.822    -203.087    -205.202
  C     -125.798    -203.936    -204.772
  O     -125.572    -204.927    -204.083
  C     -127.155    -203.651    -205.261
  C     -127.320    -202.694    -206.176
  O     -131.719    -202.629    -206.354
  O     -131.820    -200.276    -207.348
  H     -132.331    -200.160    -206.524
  H     -124.596    -200.548    -209.495
  H     -123.878    -203.258    -204.883
  H     -127.969    -204.260    -204.887
  H     -128.307    -202.486    -206.578
  H     -125.722    -200.161    -207.589
  H     -125.601    -202.588    -209.068
  H     -127.985    -202.762    -209.169
  H     -127.999    -199.741    -209.708
  H     -130.205    -199.849    -208.592
  H     -130.195    -200.828    -210.083
  P     -127.763    -203.401    -211.759
  C     -130.328    -203.292    -211.653
  O     -129.169    -204.071    -211.375
  O     -126.575    -204.281    -211.555
  O     -127.950    -203.056    -213.314
  H     -127.296    -203.569    -213.831
  H     -131.202    -203.835    -211.358
  H     -130.375    -203.084    -212.701
  H     -130.279    -202.372    -211.108

 6  7  8  9  10  11  12  13  14  15  16  27  31  32  33  34  35 0
 6-311+G(2d,p)
 ****
 36  37 0
 6-311+G(2d,p)
 ****
 1  2  3  4  5  17  18  19  20  21  22  23  24  25 0
 3-21G
 ****
 26  28  29  30  38  39  40  41  42  43  44  45 0
 3-21G
 ****


