%nproc=1
%NoSave
%Mem=1900MB
#P OB98/GEN NMR

erre ene a

0 1
  C       35.946    -649.145     477.020
  O       35.180    -648.416     476.086
  H       36.792    -649.606     476.500
  H       35.340    -649.939     477.468
  H       36.337    -648.491     477.807
  P       33.985    -647.493     476.621
  C       34.937    -645.140     476.139
  O       34.013    -646.149     475.747
  C       35.066    -644.069     475.046
  O       35.800    -644.644     473.919
  C       33.715    -643.565     474.494
  O       33.919    -642.200     474.079
  C       33.539    -644.481     473.295
  O       32.503    -644.058     472.441
  C       34.970    -644.469     472.751
  N       35.266    -645.488     471.753
  C       34.845    -645.257     470.445
  O       34.240    -644.249     470.071
  N       35.137    -646.245     469.547
  C       35.803    -647.407     469.805
  O       36.064    -648.241     468.950
  C       36.213    -647.600     471.208
  C       35.935    -646.646     472.097
  O       33.935    -647.285     478.096
  O       32.669    -648.232     476.083
  H       32.253    -648.736     476.810
  H       32.383    -644.727     471.729
  H       34.845    -646.093     468.587
  H       36.737    -648.516     471.450
  H       36.236    -646.753     473.134
  H       35.205    -643.486     472.332
  H       33.252    -645.477     473.633
  H       32.909    -643.609     475.227
  H       35.670    -643.244     475.430
  H       35.909    -645.611     476.310
  H       34.590    -644.684     477.070
  P       33.220    -640.945     474.798
  C       35.190    -639.262     474.788
  O       33.908    -639.605     474.253
  O       33.191    -641.040     476.291
  O       31.737    -640.892     474.200
  H       31.146    -640.459     474.838
  H       35.531    -638.352     474.341
  H       35.886    -640.046     474.576
  H       35.111    -639.131     475.847

 6  7  8  9  10  11  12  13  14  15  16  27  31  32  33  34  35 0
 6-311+G(2d,p)
 ****
 36  37 0
 6-311+G(2d,p)
 ****
 1  2  3  4  5  17  18  19  20  21  22  23  24  25 0
 3-21G
 ****
 26  28  29  30  38  39  40  41  42  43  44  45 0
 3-21G
 ****


