%nproc=1
%NoSave
%Mem=1900MB
#P OB98/GEN NMR

erre ene a

0 1
  C       34.579    -204.536     358.717
  O       33.527    -204.326     357.764
  P       32.172    -205.180     357.874
  C       32.993    -206.648     355.875
  O       32.400    -206.602     357.167
  C       32.434    -207.842     355.083
  O       30.996    -207.703     354.921
  C       32.971    -207.963     353.664
  O       34.281    -208.524     353.634
  C       31.934    -208.874     353.016
  O       32.195    -210.255     353.317
  C       30.630    -208.400     353.707
  N       29.800    -207.568     352.841
  C       28.621    -208.149     352.379
  O       28.293    -209.311     352.616
  N       27.830    -207.342     351.594
  C       28.135    -206.072     351.179
  O       27.391    -205.406     350.464
  C       29.428    -205.552     351.630
  C       30.197    -206.308     352.425
  O       31.211    -204.435     356.832
  O       31.540    -205.227     359.236
  H       31.365    -210.738     353.130
  H       30.291    -204.548     357.103
  H       26.954    -207.732     351.261
  H       29.719    -204.561     351.307
  H       31.161    -205.934     352.763
  H       30.038    -209.269     354.037
  H       31.906    -208.774     351.930
  H       32.943    -206.979     353.165
  H       32.622    -208.762     355.651
  H       34.079    -206.775     355.970
  H       32.788    -205.706     355.344
  P       35.496    -207.465     353.435
  C       35.525    -208.141     350.914
  O       35.485    -207.107     351.877
  O       36.759    -208.443     353.636
  O       35.431    -206.310     354.372
  H       36.592    -209.332     353.308
  H       34.999    -209.038     351.253
  H       36.578    -208.387     350.684
  H       35.040    -207.776     349.987
  H       35.399    -203.886     358.492
  H       34.907    -205.553     358.668
  H       34.216    -204.325     359.701

 3  4  5  6  7  8  9  10  11  12  13  23  28  29  30  31  32 0
 6-311+G(2d,p)
 ****
 33  34 0
 6-311+G(2d,p)
 ****
 1  2  14  15  16  17  18  19  20  21  22  24  25  26 0
 3-21G
 ****
 27  35  36  37  38  39  40  41  42  43  44  45 0
 3-21G
 ****


