%nproc=1
%NoSave
%Mem=1900MB
#P OB98/GEN NMR

erre ene a

0 1
  C     -205.124     -21.291     145.441
  O     -205.727     -20.025     145.593
  P     -205.236     -18.772     144.712
  C     -204.459     -17.422     146.769
  O     -204.063     -18.083     145.567
  C     -203.375     -17.553     147.836
  O     -202.996     -18.935     148.014
  C     -202.084     -16.808     147.517
  O     -202.240     -15.415     147.741
  C     -201.106     -17.500     148.442
  O     -201.167     -16.957     149.768
  C     -201.613     -18.963     148.425
  N     -200.807     -19.823     147.567
  C     -199.562     -20.201     148.079
  O     -199.179     -19.784     149.176
  N     -198.750     -21.005     147.305
  C     -199.139     -21.372     146.129
  N     -198.292     -22.152     145.408
  C     -200.435     -20.972     145.543
  C     -201.208     -20.199     146.304
  O     -206.324     -17.857     144.252
  O     -204.440     -19.467     143.506
  H     -201.104     -15.981     149.667
  H     -205.056     -19.886     142.859
  H     -200.713     -21.292     144.548
  H     -202.173     -19.855     145.951
  H     -201.602     -19.379     149.442
  H     -200.062     -17.395     148.106
  H     -201.798     -16.997     146.473
  H     -203.790     -17.191     148.788
  H     -197.399     -22.380     145.842
  H     -205.384     -17.884     147.131
  H     -198.480     -22.467     144.468
  H     -204.666     -16.368     146.554
  P     -202.196     -14.399     146.510
  C     -199.931     -13.366     147.123
  O     -200.663     -14.112     146.161
  O     -203.057     -13.180     146.656
  O     -202.690     -15.288     145.268
  H     -203.326     -14.767     144.744
  H     -198.864     -13.525     146.948
  H     -200.167     -13.686     148.138
  H     -200.149     -12.309     147.011
  H     -205.585     -21.988     146.109
  H     -204.080     -21.218     145.666
  H     -205.249     -21.627     144.433

 3  4  5  6  7  8  9  10  11  12  13  23  27  28  29  30  32 0
 6-311+G(2d,p)
 ****
 34  35 0
 6-311+G(2d,p)
 ****
 1  2  14  15  16  17  18  19  20  21  22  24  25  26 0
 3-21G
 ****
 31  33  36  37  38  39  40  41  42  43  44  45  46 0
 3-21G
 ****


