%nproc=1
%NoSave
%Mem=1900MB
#P OB98/GEN NMR

erre ene a

0 1
  C     -898.530     547.389     148.606
  O     -898.050     546.980     147.335
  P     -897.910     545.423     146.991
  C     -895.510     544.871     147.769
  O     -896.910     544.782     148.068
  C     -894.860     543.489     147.823
  O     -895.160     542.840     149.087
  C     -895.340     542.531     146.744
  O     -894.750     542.845     145.476
  C     -894.920     541.195     147.336
  O     -893.530     540.933     147.069
  C     -895.150     541.422     148.843
  N     -897.350     537.178     150.651
  C     -896.130     537.412     150.108
  N     -895.630     538.569     149.619
  C     -896.550     539.537     149.688
  C     -897.840     539.449     150.172
  C     -898.240     538.212     150.694
  N     -899.460     537.981     151.306
  N     -898.490     540.675     150.048
  C     -897.620     541.463     149.492
  N     -896.400     540.848     149.309
  O     -897.600     545.097     145.566
  O     -899.330     544.803     147.418
  H     -893.300     540.112     147.551
  H     -899.760     544.409     146.641
  H     -895.460     536.559     150.084
  H     -897.780     542.494     149.210
  H     -894.350     541.000     149.458
  H     -895.490     540.352     146.913
  H     -896.430     542.574     146.670
  H     -893.760     543.634     147.757
  H     -895.040     545.532     148.499
  H     -899.570     537.085     151.764
  H     -900.000     538.790     151.611
  H     -895.380     545.317     146.770
  P     -895.430     542.323     144.132
  C     -893.930     540.571     143.003
  O     -894.970     540.795     143.940
  O     -895.240     543.212     142.948
  O     -896.980     542.180     144.520
  H     -897.520     542.383     143.738
  H     -894.340     540.601     141.988
  H     -893.530     539.573     143.180
  H     -893.130     541.313     143.105
  H     -898.554     548.458     148.651
  H     -897.881     547.015     149.370
  H     -899.517     547.003     148.756

 3  4  5  6  7  8  9  10  11  12  22  25  29  30  31  32 0
 6-311+G(2d,p)
 ****
 33  36  37 0
 6-311+G(2d,p)
 ****
 1  2  13  14  15  16  17  18  19  20  21  23  24  26 0
 3-21G
 ****
 27  28  34  35  38  39  40  41  42  43  44  45  46  47  48 0
 3-21G
 ****


