%nproc=1
%NoSave
%Mem=1900MB
#P OB98/GEN NMR

erre ene a

0 1
  C     -784.592     554.545    -228.486
  O     -785.590     553.857    -229.223
  H     -784.027     553.813    -227.901
  H     -785.058     555.257    -227.796
  H     -783.905     555.069    -229.155
  P     -786.505     554.693    -230.243
  C     -788.558     554.109    -228.806
  O     -787.993     554.106    -230.115
  C     -790.025     553.685    -228.856
  O     -790.776     554.678    -229.608
  C     -790.252     552.326    -229.524
  O     -791.303     551.642    -228.821
  C     -790.722     552.684    -230.918
  O     -791.533     551.667    -231.506
  C     -791.468     553.989    -230.668
  N     -794.496     556.837    -233.550
  C     -794.740     556.218    -232.345
  N     -795.986     556.344    -231.841
  N     -793.844     555.523    -231.695
  C     -792.636     555.485    -232.312
  C     -792.273     556.064    -233.506
  C     -793.274     556.816    -234.224
  O     -793.110     557.388    -235.302
  N     -790.958     555.775    -233.809
  C     -790.537     555.028    -232.802
  N     -791.525     554.818    -231.871
  O     -785.992     554.766    -231.649
  O     -786.618     556.144    -229.571
  H     -791.706     551.937    -232.432
  H     -785.997     556.766    -229.998
  H     -795.227     557.356    -234.019
  H     -789.544     554.616    -232.694
  H     -792.513     553.826    -230.355
  H     -789.848     552.852    -231.575
  H     -796.726     556.871    -232.280
  H     -789.354     551.700    -229.538
  H     -796.189     555.911    -230.941
  H     -790.426     553.695    -227.839
  H     -788.481     555.124    -228.400
  H     -787.984     553.422    -228.166
  P     -790.921     550.734    -227.557
  C     -790.576     548.756    -229.173
  O     -791.161     549.195    -227.953
  O     -791.525     551.162    -226.254
  O     -789.323     550.838    -227.504
  H     -789.032     550.752    -226.579
  H     -790.804     547.722    -229.326
  H     -789.515     548.884    -229.126
  H     -790.969     549.332    -229.985

 6  7  8  9  10  11  12  13  14  15  26  29  33  34 0
 6-311+G(2d,p)
 ****
 36  38  39  40  41 0
 6-311+G(2d,p)
 ****
 1  2  3  4  5  16  17  18  19  20  21  22  23  24  25 0
 3-21G
 ****
 27  28  30  31  32  35  37  42  43  44  45  46  47 0
 3-21G
 ****
 48  49 0
 3-21G
 ****


