%nproc=1
%NoSave
%Mem=1900MB
#P OB98/GEN NMR

erre ene a

0 1
  C       50.587      33.964      -4.417
  O       49.224      34.107      -4.755
  H       50.670      33.239      -3.603
  H       50.995      34.918      -4.076
  H       51.163      33.598      -5.271
  P       48.830      35.016      -6.014
  C       50.048      33.420      -7.628
  O       49.938      34.751      -7.142
  C       51.123      33.348      -8.708
  O       51.253      31.995      -9.198
  C       50.826      34.206      -9.933
  O       51.062      35.572      -9.661
  C       51.764      33.574     -10.949
  O       53.111      34.037     -10.766
  C       51.651      32.075     -10.585
  N       50.715      31.350     -11.446
  C       51.083      30.056     -11.798
  O       52.128      29.527     -11.427
  N       50.222      29.400     -12.637
  C       49.107      29.936     -13.213
  O       48.490      29.393     -14.123
  C       48.729      31.277     -12.745
  C       49.546      31.920     -11.908
  O       48.561      36.453      -5.718
  O       47.533      34.289      -6.611
  H       46.734      34.773      -6.328
  H       53.668      33.516     -11.376
  H       50.502      28.478     -12.937
  H       47.815      31.713     -13.130
  H       49.303      32.922     -11.574
  H       52.632      31.587     -10.662
  H       51.482      33.809     -11.977
  H       49.792      34.047     -10.260
  H       52.081      33.636      -8.256
  H       49.084      33.124      -8.054
  H       50.289      32.753      -6.794
  P       50.441      36.720     -10.584
  C       49.301      37.799      -8.559
  O       49.120      37.275      -9.868
  O       50.257      36.348     -12.018
  O       51.468      37.941     -10.440
  H       51.745      38.232     -11.330
  H       48.361      38.139      -8.178
  H       49.989      38.618      -8.595
  H       49.690      37.034      -7.919

 6  7  8  9  10  11  12  13  14  15  16  27  31  32  33  34  35 0
 6-311+G(2d,p)
 ****
 36  37 0
 6-311+G(2d,p)
 ****
 1  2  3  4  5  17  18  19  20  21  22  23  24  25 0
 3-21G
 ****
 26  28  29  30  38  39  40  41  42  43  44  45 0
 3-21G
 ****


