%nproc=1
%NoSave
%Mem=1900MB
#P OB98/GEN NMR

erre ene a

0 1
  C      290.398    -251.354    -168.618
  O      289.202    -251.484    -169.356
  H      291.149    -252.021    -169.051
  H      290.223    -251.649    -167.581
  H      290.779    -250.329    -168.650
  P      288.096    -250.334    -169.236
  C      289.201    -248.978    -171.135
  O      288.746    -248.970    -169.789
  C      290.081    -247.766    -171.444
  O      290.385    -247.717    -172.854
  C      289.386    -246.444    -171.113
  O      289.479    -246.031    -169.763
  C      290.115    -245.470    -172.033
  O      291.326    -244.992    -171.421
  C      290.437    -246.334    -173.256
  N      288.421    -242.973    -176.533
  C      289.278    -242.748    -175.475
  N      289.595    -241.457    -175.226
  N      289.766    -243.704    -174.725
  C      289.288    -244.930    -175.034
  C      288.424    -245.277    -176.048
  C      287.934    -244.216    -176.909
  O      287.164    -244.362    -177.855
  N      288.170    -246.628    -176.053
  C      288.816    -247.083    -175.002
  N      289.536    -246.097    -174.366
  O      288.006    -250.059    -167.659
  O      286.751    -250.678    -169.801
  H      291.829    -244.490    -172.088
  H      287.125    -249.711    -167.431
  H      288.101    -242.203    -177.092
  H      288.823    -248.118    -174.674
  H      291.456    -246.146    -173.623
  H      289.506    -244.589    -172.257
  H      289.156    -240.682    -175.698
  H      288.335    -246.481    -171.418
  H      289.999    -241.231    -174.313
  H      291.036    -247.865    -170.913
  H      288.312    -248.964    -171.768
  H      289.739    -249.905    -171.348
  P      288.509    -244.887    -169.203
  C      287.242    -246.372    -167.483
  O      287.183    -245.618    -168.671
  O      288.029    -244.146    -170.538
  O      289.138    -243.940    -168.240
  H      288.572    -243.354    -170.698
  H      286.278    -246.787    -167.276
  H      287.539    -245.739    -166.673
  H      287.954    -247.163    -167.597

 6  7  8  9  10  11  12  13  14  15  26  29  33  34 0
 6-311+G(2d,p)
 ****
 36  38  39  40  41 0
 6-311+G(2d,p)
 ****
 1  2  3  4  5  16  17  18  19  20  21  22  23  24  25 0
 3-21G
 ****
 27  28  30  31  32  35  37  42  43  44  45  46  47 0
 3-21G
 ****
 48  49 0
 3-21G
 ****


