%nproc=1
%NoSave
%Mem=1900MB
#P OB98/GEN NMR

erre ene a

0 1
  C      334.939    -526.652    -155.605
  O      334.694    -527.752    -156.459
  H      334.299    -525.823    -155.912
  H      335.983    -526.344    -155.697
  H      334.713    -526.907    -154.566
  P      335.276    -529.176    -155.992
  C      337.437    -529.482    -157.399
  O      336.055    -529.784    -157.255
  C      337.884    -529.705    -158.838
  O      337.661    -531.079    -159.229
  C      337.147    -528.847    -159.866
  O      337.722    -527.547    -159.964
  C      337.392    -529.649    -161.133
  O      338.739    -529.420    -161.598
  C      337.252    -531.094    -160.624
  N      334.382    -535.239    -160.059
  C      335.750    -535.085    -159.929
  N      336.457    -536.192    -159.609
  N      336.373    -533.949    -160.103
  C      335.545    -532.928    -160.440
  C      334.177    -532.961    -160.607
  C      333.506    -534.220    -160.396
  O      332.292    -534.410    -160.491
  N      333.685    -531.731    -160.950
  C      334.754    -530.961    -161.018
  N      335.908    -531.641    -160.719
  O      333.956    -530.079    -155.887
  O      336.029    -529.160    -154.707
  H      338.728    -528.585    -162.101
  H      333.709    -530.167    -154.947
  H      333.956    -536.139    -159.927
  H      334.744    -529.909    -161.267
  H      337.914    -531.784    -161.153
  H      336.724    -529.368    -161.948
  H      336.043    -537.101    -159.487
  H      336.073    -528.798    -159.659
  H      337.458    -536.098    -159.503
  H      338.966    -529.523    -158.888
  H      338.012    -530.135    -156.732
  H      337.605    -528.437    -157.113
  P      336.734    -526.283    -159.984
  C      337.859    -525.379    -162.138
  O      337.488    -525.117    -160.794
  O      336.784    -525.777    -158.468
  O      335.338    -526.571    -160.419
  H      335.919    -525.933    -158.036
  H      338.348    -524.520    -162.547
  H      336.984    -525.599    -162.713
  H      338.525    -526.216    -162.168

 6  7  8  9  10  11  12  13  14  15  26  29  33  34 0
 6-311+G(2d,p)
 ****
 36  38  39  40  41 0
 6-311+G(2d,p)
 ****
 1  2  3  4  5  16  17  18  19  20  21  22  23  24  25 0
 3-21G
 ****
 27  28  30  31  32  35  37  42  43  44  45  46  47 0
 3-21G
 ****
 48  49 0
 3-21G
 ****


