%nproc=1
%NoSave
%Mem=1900MB
#P OB98/GEN NMR

erre ene a

0 1
  C     -199.400     339.373     249.645
  O     -198.771     340.623     249.490
  P     -197.238     340.800     249.089
  C     -197.415     342.977     247.650
  O     -196.951     342.357     248.843
  C     -196.786     344.366     247.467
  O     -197.377     345.269     248.434
  C     -195.273     344.341     247.745
  O     -194.502     345.113     246.832
  C     -195.193     344.720     249.218
  O     -193.918     345.203     249.613
  C     -196.350     345.704     249.350
  N     -195.877     347.670     254.011
  C     -195.200     348.003     252.855
  N     -194.143     348.832     253.003
  N     -195.512     347.533     251.674
  C     -196.515     346.625     251.700
  C     -197.261     346.219     252.784
  C     -196.929     346.771     254.076
  O     -197.427     346.419     255.144
  N     -198.155     345.235     252.448
  C     -197.927     345.022     251.166
  N     -196.917     345.821     250.678
  O     -196.686     339.821     248.105
  O     -196.498     340.543     250.502
  H     -193.259     344.520     249.382
  H     -195.648     340.104     250.305
  H     -195.538     348.004     254.907
  H     -198.436     344.285     250.554
  H     -196.050     346.714     249.061
  H     -195.384     343.813     249.803
  H     -193.794     349.091     253.913
  H     -194.877     343.327     247.616
  H     -193.489     348.895     252.227
  H     -197.023     344.740     246.468
  H     -198.502     343.066     247.755
  H     -197.213     342.344     246.782
  P     -193.962     344.704     245.386
  C     -194.415     347.023     244.384
  O     -193.446     346.026     244.644
  O     -195.264     344.312     244.548
  O     -192.985     343.574     245.386
  H     -195.070     343.537     243.984
  H     -194.013     347.721     243.646
  H     -194.643     347.561     245.303
  H     -195.336     346.576     243.980
  H     -200.425     339.520     249.915
  H     -198.905     338.817     250.414
  H     -199.348     338.831     248.724

 3  4  5  6  7  8  9  10  11  12  23  26  30  31 0
 6-311+G(2d,p)
 ****
 33  35  36  37  38 0
 6-311+G(2d,p)
 ****
 1  2  13  14  15  16  17  18  19  20  21  22  24  25 0
 3-21G
 ****
 27  28  29  32  34  39  40  41  42  43  44  45  46  47  48  49 0
 3-21G
 ****


