%nproc=1
%NoSave
%Mem=1900MB
#P OB98/GEN NMR

erre ene a

0 1
  C      -53.271      41.817     -17.826
  O      -51.943      41.656     -18.338
  P      -51.085      40.445     -17.716
  C      -51.275      38.809     -19.726
  O      -50.424      39.628     -18.933
  C      -50.534      38.210     -20.923
  O      -49.891      39.273     -21.668
  C      -49.445      37.193     -20.562
  O      -49.439      36.155     -21.554
  C      -48.160      37.983     -20.725
  O      -47.033      37.139     -20.946
  C      -48.532      38.874     -21.907
  N      -44.169      40.634     -23.763
  C      -44.772      39.405     -23.941
  N      -44.105      38.512     -24.705
  N      -45.925      39.080     -23.420
  C      -46.493      40.083     -22.707
  C      -46.001      41.347     -22.466
  C      -44.704      41.676     -23.015
  O      -44.093      42.729     -22.849
  N      -46.867      42.084     -21.695
  C      -47.874      41.266     -21.465
  N      -47.690      40.039     -22.051
  O      -52.210      39.456     -17.150
  O      -50.139      40.866     -16.643
  H      -47.211      36.631     -21.760
  H      -52.059      39.291     -16.199
  H      -43.271      40.825     -24.170
  H      -48.743      41.498     -20.866
  H      -48.504      38.316     -22.851
  H      -47.976      38.570     -19.817
  H      -43.246      38.720     -25.189
  H      -49.547      36.755     -19.565
  H      -44.553      37.622     -24.885
  H      -51.275      37.751     -21.589
  H      -52.117      39.406     -20.088
  H      -51.678      38.011     -19.094
  P      -50.224      34.807     -21.180
  C      -52.738      35.361     -21.552
  O      -51.548      34.808     -22.080
  O      -50.769      35.094     -19.703
  O      -49.386      33.573     -21.247
  H      -50.881      34.256     -19.215
  H      -52.560      35.916     -20.628
  H      -53.446      34.554     -21.350
  H      -53.172      36.038     -22.292
  H      -53.742      42.647     -18.310
  H      -53.228      41.996     -16.772
  H      -53.836      40.928     -18.014

 3  4  5  6  7  8  9  10  11  12  23  26  30  31  33  0
 6-311+G(2d,p)
 ****
 35  36  37  38 0
 6-311+G(2d,p)
 ****
 1  2  13  14  15  16  17  18  19  20  21  22  24  25  27  28  29 0
 3-21G
 ****
 32  34  39  40  41  42  43  44  45  46  47  48  49 0
 3-21G
 ****


