%nproc=1
%NoSave
%Mem=1900MB
#P OB98/GEN NMR

erre ene a

0 1
  C      115.030    -779.683      75.197
  O      114.568    -779.902      73.882
  P      114.164    -781.378      73.379
  C      114.885    -780.777      70.984
  O      115.077    -781.648      72.088
  C      115.968    -781.024      69.924
  O      117.255    -780.666      70.493
  C      116.117    -782.475      69.464
  O      115.209    -782.865      68.426
  C      117.536    -782.446      68.899
  O      117.527    -781.833      67.588
  C      118.254    -781.538      69.897
  N      122.804    -783.105      71.640
  C      122.459    -782.337      70.592
  N      121.219    -781.976      70.171
  C      120.287    -782.462      71.013
  C      120.493    -783.247      72.130
  C      121.821    -783.586      72.450
  N      122.177    -784.342      73.545
  N      119.284    -783.572      72.731
  C      118.374    -782.971      71.992
  N      118.941    -782.285      70.935
  O      112.692    -781.588      73.191
  O      114.792    -782.354      74.481
  H      116.839    -782.285      67.074
  H      114.385    -783.233      74.420
  H      123.280    -781.979      69.972
  H      117.307    -783.002      72.161
  H      118.994    -780.880      69.412
  H      117.964    -783.451      68.790
  H      116.082    -783.173      70.311
  H      115.773    -780.359      69.078
  H      114.970    -779.743      71.350
  H      123.152    -784.415      73.756
  H      121.455    -784.558      74.227
  H      113.881    -780.916      70.571
  P      114.889    -784.433      68.297
  C      115.011    -784.202      65.695
  O      115.457    -784.860      66.856
  O      113.467    -784.804      68.571
  O      115.942    -785.098      69.325
  H      116.871    -785.019      69.063
  H      115.639    -784.519      64.834
  H      115.110    -783.116      65.798
  H      113.976    -784.467      65.472
  H      115.243    -778.643      75.332
  H      115.920    -780.254      75.362
  H      114.277    -779.986      75.895

 3  4  5  6  7  8  9  10  11  12  22  25  29  30  31  32 0
 6-311+G(2d,p)
 ****
 33  36  37 0
 6-311+G(2d,p)
 ****
 1  2  13  14  15  16  17  18  19  20  21  23  24  26 0
 3-21G
 ****
 27  28  34  35  38  39  40  41  42  43  44  45  46  47  48 0
 3-21G
 ****


