%nproc=1
%NoSave
%Mem=1900MB
#P OB98/GEN NMR

erre ene a

0 1
  C      854.894     199.014     171.955
  O      854.649     199.678     170.730
  H      853.940     198.830     172.456
  H      855.512     199.651     172.595
  H      855.395     198.055     171.788
  P      855.837     199.696     169.656
  C      854.648     197.778     168.365
  O      855.852     198.246     168.963
  C      854.865     196.403     167.735
  O      855.857     196.527     166.673
  C      855.368     195.328     168.723
  O      854.764     194.072     168.380
  C      856.849     195.254     168.409
  O      857.421     194.006     168.790
  C      856.835     195.490     166.900
  N      861.084     193.583     165.032
  C      859.855     192.991     165.259
  N      859.760     191.666     165.000
  N      858.814     193.637     165.704
  C      859.042     194.965     165.895
  C      860.212     195.667     165.715
  C      861.366     194.932     165.240
  O      862.484     195.401     165.043
  N      860.052     196.984     166.085
  C      858.800     197.058     166.506
  N      858.148     195.861     166.410
  O      857.149     199.686     170.577
  O      855.828     200.852     168.715
  H      857.308     193.902     169.756
  H      857.460     200.600     170.715
  H      861.862     193.031     164.709
  H      858.328     197.950     166.903
  H      856.525     194.600     166.336
  H      857.387     196.060     168.928
  H      860.508     191.100     164.635
  H      855.162     195.562     169.772
  H      858.849     191.228     165.124
  H      853.929     196.085     167.261
  H      854.342     198.484     167.586
  H      853.864     197.734     169.130
  P      853.596     193.518     169.319
  C      852.059     192.429     167.520
  O      852.232     193.476     168.461
  O      853.341     194.725     170.339
  O      853.933     192.256     170.037
  H      853.093     194.372     171.214
  H      851.112     192.538     167.035
  H      852.094     191.486     168.025
  H      852.840     192.472     166.790

 6  7  8  9  10  11  12  13  14  15  26  29  33  34 0
 6-311+G(2d,p)
 ****
 36  38  39  40  41 0
 6-311+G(2d,p)
 ****
 1  2  3  4  5  16  17  18  19  20  21  22  23  24  25 0
 3-21G
 ****
 27  28  30  31  32  35  37  42  43  44  45  46  47 0
 3-21G
 ****
 48  49 0
 3-21G
 ****


