%nproc=1
%NoSave
%Mem=1900MB
#P OB98/GEN NMR

erre ene a

0 1
  C       30.279      43.360     -15.809
  O       30.868      42.583     -16.835
  P       31.808      43.279     -17.928
  C       29.796      43.784     -19.499
  O       31.053      43.164     -19.336
  C       29.152      43.390     -20.834
  O       27.910      44.124     -20.962
  C       29.973      43.742     -22.070
  O       29.488      42.973     -23.172
  C       29.621      45.198     -22.273
  O       29.892      45.640     -23.600
  C       28.130      45.245     -21.850
  N       27.799      46.510     -21.170
  C       27.819      47.665     -21.946
  O       28.022      47.653     -23.159
  N       27.683      48.844     -21.265
  C       27.581      48.965     -19.911
  O       27.769      50.012     -19.303
  C       27.326      47.715     -19.179
  C       27.471      46.557     -19.829
  O       33.022      42.246     -18.061
  O       32.279      44.646     -17.572
  H       30.798      45.323     -23.825
  H       33.769      42.529     -17.500
  H       27.842      49.684     -21.807
  H       27.090      47.779     -18.126
  H       27.340      45.616     -19.302
  H       27.466      45.143     -22.717
  H       30.223      45.811     -21.591
  H       31.051      43.596     -21.950
  H       28.913      42.320     -20.821
  H       29.918      44.869     -19.435
  H       29.124      43.499     -18.682
  P       30.324      41.676     -23.607
  C       32.570      42.913     -23.714
  O       31.584      42.210     -24.442
  O       29.543      40.581     -24.253
  O       30.991      41.197     -22.229
  H       31.272      40.268     -22.306
  H       33.538      42.769     -24.202
  H       32.637      42.558     -22.682
  H       32.327      43.979     -23.716
  H       29.689      42.729     -15.178
  H       29.655      44.112     -16.245
  H       31.048      43.826     -15.229

 3  4  5  6  7  8  9  10  11  12  13  23  28  29  30  31  32 0
 6-311+G(2d,p)
 ****
 33  34 0
 6-311+G(2d,p)
 ****
 1  2  14  15  16  17  18  19  20  21  22  24  25  26  27 0
 3-21G
 ****
 35  36  37  38  39  40  41  42  43  44  45 0
 3-21G
 ****


