%nproc=1
%NoSave
%Mem=1900MB
#P OB98/GEN NMR

erre ene a

0 1
  C     -857.118     879.216     107.679
  O     -858.401     878.899     108.224
  P     -859.655     879.873     107.891
  C     -861.327     877.850     107.948
  O     -861.000     879.169     108.391
  C     -862.498     877.278     108.743
  O     -862.175     877.152     110.136
  C     -863.753     878.165     108.717
  O     -864.451     878.036     107.455
  C     -864.538     877.599     109.887
  O     -865.277     876.433     109.524
  C     -863.410     877.254     110.890
  N     -863.305     878.249     111.967
  C     -864.171     878.110     113.007
  O     -865.094     877.282     113.032
  N     -864.050     879.009     114.050
  C     -863.150     880.065     114.074
  O     -863.089     880.862     115.014
  C     -862.268     880.194     112.902
  C     -862.399     879.300     111.906
  O     -859.789     879.711     106.302
  O     -859.491     881.291     108.278
  H     -866.072     876.706     109.054
  H     -860.159     880.524     105.929
  H     -864.680     878.927     114.817
  H     -861.573     881.010     112.874
  H     -861.762     879.355     111.017
  H     -863.578     876.260     111.331
  H     -865.275     878.347     110.288
  H     -863.493     879.200     108.906
  H     -862.727     876.269     108.352
  H     -860.456     877.189     108.091
  H     -861.549     877.895     106.866
  P     -865.200     879.360     106.945
  C     -864.383     879.319     104.442
  O     -865.431     879.116     105.359
  O     -864.001     880.441     106.995
  O     -866.394     879.716     107.747
  H     -863.164     880.024     106.822
  H     -863.411     879.062     104.884
  H     -864.389     880.351     104.108
  H     -864.544     878.664     103.572
  H     -856.406     878.481     107.991
  H     -856.811     880.180     108.027
  H     -857.177     879.225     106.611

 3  4  5  6  7  8  9  10  11  12  13  23  28  29  30  31  32 0
 6-311+G(2d,p)
 ****
 33  34 0
 6-311+G(2d,p)
 ****
 1  2  14  15  16  17  18  19  20  21  22  24  25  26 0
 3-21G
 ****
 27  35  36  37  38  39  40  41  42  43  44  45 0
 3-21G
 ****


