%nproc=1
%NoSave
%Mem=1900MB
#P OB98/GEN NMR

erre ene a

0 1
  C     -512.598      11.151    -375.579
  O     -512.128       9.826    -375.720
  H     -511.754      11.792    -375.312
  H     -513.343      11.202    -374.781
  H     -513.030      11.512    -376.516
  P     -513.135       8.705    -376.275
  C     -511.769       8.132    -378.387
  O     -512.977       8.683    -377.872
  C     -511.763       8.239    -379.912
  O     -511.324       9.557    -380.311
  C     -510.806       7.267    -380.592
  O     -511.322       5.948    -380.598
  C     -510.665       7.913    -381.957
  O     -511.765       7.570    -382.810
  C     -510.697       9.418    -381.609
  N     -509.358      10.011    -381.612
  C     -508.759      10.167    -382.857
  O     -509.301       9.850    -383.919
  N     -507.479      10.650    -382.848
  C     -506.713      10.852    -381.735
  O     -505.501      11.047    -381.774
  C     -507.416      10.728    -380.450
  C     -508.682      10.307    -380.446
  O     -514.536       8.792    -375.774
  O     -512.438       7.329    -375.831
  H     -512.897       6.979    -375.045
  H     -511.817       6.590    -382.792
  H     -507.023      10.730    -383.746
  H     -506.864      10.953    -379.543
  H     -509.214      10.180    -379.504
  H     -511.323       9.966    -382.324
  H     -509.747       7.599    -382.455
  H     -509.838       7.290    -380.085
  H     -512.790       8.098    -380.272
  H     -511.715       7.077    -378.097
  H     -510.921       8.668    -377.958
  P     -510.557       4.779    -379.819
  C     -512.505       3.413    -378.844
  O     -511.452       4.332    -378.564
  O     -509.125       5.060    -379.501
  O     -510.682       3.518    -380.804
  H     -509.792       3.126    -380.924
  H     -513.031       3.187    -377.940
  H     -512.094       2.513    -379.252
  H     -513.180       3.849    -379.551

 6  7  8  9  10  11  12  13  14  15  16  27  31  32  33  34  35 0
 6-311+G(2d,p)
 ****
 36  37 0
 6-311+G(2d,p)
 ****
 1  2  3  4  5  17  18  19  20  21  22  23  24  25 0
 3-21G
 ****
 26  28  29  30  38  39  40  41  42  43  44  45 0
 3-21G
 ****


