%nproc=1
%NoSave
%Mem=1900MB
#P OB98/GEN NMR

erre ene a

0 1
  C      -53.476     -38.994      28.345
  O      -52.977     -40.216      28.842
  H      -54.397     -39.189      27.791
  H      -52.749     -38.544      27.663
  H      -53.694     -38.303      29.164
  P      -51.709     -40.153      29.823
  C      -52.868     -39.102      31.895
  O      -52.280     -40.260      31.321
  C      -53.706     -39.482      33.117
  O      -53.911     -38.296      33.929
  C      -55.081     -40.056      32.766
  O      -55.387     -41.105      33.688
  C      -56.025     -38.890      32.994
  O      -57.360     -39.311      33.279
  C      -55.328     -38.144      34.139
  N      -55.723     -36.739      34.181
  C      -56.299     -36.284      35.370
  O      -56.463     -37.058      36.315
  N      -56.731     -34.986      35.443
  C      -56.672     -34.229      34.392
  N      -57.144     -32.959      34.518
  C      -56.134     -34.686      33.096
  C      -55.674     -35.936      33.065
  O      -51.236     -38.629      29.720
  O      -50.610     -41.113      29.510
  H      -57.699     -39.805      32.502
  H      -50.270     -38.550      29.832
  H      -56.129     -34.027      32.241
  H      -55.267     -36.362      32.155
  H      -55.571     -38.607      35.105
  H      -56.056     -38.262      32.095
  H      -55.139     -40.441      31.744
  H      -53.131     -40.190      33.725
  H      -57.522     -32.688      35.419
  H      -53.518     -38.628      31.153
  H      -57.189     -32.299      33.757
  H      -52.080     -38.396      32.177
  P      -55.818     -42.515      33.059
  C      -53.808     -44.044      32.451
  O      -54.708     -43.600      33.458
  O      -55.596     -42.302      31.489
  O      -57.226     -42.905      33.370
  H      -56.458     -42.242      31.036
  H      -53.132     -44.761      32.868
  H      -53.254     -43.209      32.074
  H      -54.360     -44.495      31.653

 6  7  8  9  10  11  12  13  14  15  16  26  30  31  32  33  35 0
 6-311+G(2d,p)
 ****
 37  38 0
 6-311+G(2d,p)
 ****
 1  2  3  4  5  17  18  19  20  21  22  23  24  25 0
 3-21G
 ****
 27  28  29  34  36  39  40  41  42  43  44  45  46 0
 3-21G
 ****


