%nproc=1
%NoSave
%Mem=1900MB
#P OB98/GEN NMR

erre ene a

0 1
  C      540.772    -309.377      72.244
  O      540.771    -308.367      73.255
  P      541.005    -306.812      72.955
  C      539.303    -305.985      74.719
  O      540.660    -305.982      74.286
  C      539.214    -306.127      76.242
  O      539.595    -307.469      76.647
  C      540.159    -305.234      77.038
  O      539.741    -303.881      77.038
  C      540.132    -305.904      78.412
  O      539.006    -305.467      79.183
  C      539.970    -307.393      78.033
  N      541.167    -308.177      78.310
  C      541.091    -309.109      79.342
  O      540.073    -309.192      80.033
  N      542.176    -309.923      79.575
  C      543.274    -309.735      78.907
  N      544.308    -310.586      79.174
  C      543.449    -308.674      77.902
  C      542.358    -307.939      77.650
  O      540.293    -306.310      71.736
  O      542.597    -306.646      72.802
  H      542.788    -305.872      72.235
  H      539.125    -304.504      79.331
  H      544.381    -308.533      77.393
  H      542.382    -307.137      76.915
  H      539.124    -307.823      78.590
  H      541.035    -305.687      78.989
  H      541.173    -305.308      76.610
  H      538.174    -305.954      76.549
  H      544.157    -311.308      79.856
  H      538.796    -306.835      74.256
  H      545.203    -310.544      78.690
  H      538.811    -305.059      74.382
  P      540.294    -302.946      75.852
  C      538.459    -301.455      74.742
  O      539.369    -301.627      75.810
  O      539.866    -303.743      74.518
  O      541.758    -302.688      75.886
  H      540.576    -303.665      73.856
  H      537.633    -300.836      75.089
  H      538.073    -302.406      74.386
  H      538.968    -300.934      73.925
  H      540.595    -310.332      72.693
  H      541.721    -309.386      71.750
  H      540.001    -309.169      71.532

 3  4  5  6  7  8  9  10  11  12  13  24  27  28  29  30  32 0
 6-311+G(2d,p)
 ****
 34  35 0
 6-311+G(2d,p)
 ****
 1  2  14  15  16  17  18  19  20  21  22  23  25  26 0
 3-21G
 ****
 31  33  36  37  38  39  40  41  42  43  44  45  46 0
 3-21G
 ****


