%nproc=1
%NoSave
%Mem=1900MB
#P OB98/GEN NMR

erre ene a

0 1
  C       38.438      68.297      -3.173
  O       38.575      67.707      -1.897
  H       37.451      68.048      -3.570
  H       39.196      67.902      -3.853
  H       38.525      69.385      -3.112
  P       39.853      68.083      -1.005
  C       41.331      66.549      -2.458
  O       41.144      67.854      -1.926
  C       42.820      66.221      -2.522
  O       43.485      67.102      -3.451
  C       43.550      66.392      -1.194
  O       43.266      65.318      -0.319
  C       44.992      66.466      -1.673
  O       45.510      65.154      -1.940
  C       44.841      67.277      -2.982
  N       45.159      68.695      -2.821
  C       46.469      68.999      -2.467
  O       47.324      68.140      -2.255
  N       46.762      70.332      -2.345
  C       45.871      71.359      -2.457
  O       46.173      72.537      -2.285
  C       44.493      70.977      -2.798
  C       44.205      69.684      -2.962
  O       39.920      67.438       0.339
  O       39.774      69.678      -0.889
  H       46.484      65.230      -1.922
  H       39.399      69.927      -0.024
  H       47.703      70.571      -2.076
  H       43.758      71.765      -2.889
  H       43.193      69.382      -3.208
  H       45.496      66.867      -3.760
  H       45.656      66.923      -0.939
  H       43.283      67.351      -0.735
  H       42.928      65.194      -2.895
  H       40.906      66.517      -3.469
  H       40.802      65.830      -1.826
  P       43.427      65.488       1.263
  C       45.846      64.648       1.314
  O       44.982      65.749       1.567
  O       42.806      64.408       2.087
  O       42.755      66.907       1.570
  H       41.888      66.776       2.004
  H       46.853      64.924       1.547
  H       45.781      64.374       0.282
  H       45.554      63.818       1.923

 6  7  8  9  10  11  12  13  14  15  16  26  31  32  33  34  35 0
 6-311+G(2d,p)
 ****
 36  37 0
 6-311+G(2d,p)
 ****
 1  2  3  4  5  17  18  19  20  21  22  23  24  25 0
 3-21G
 ****
 27  28  29  30  38  39  40  41  42  43  44  45 0
 3-21G
 ****


