%nproc=1
%NoSave
%Mem=1900MB
#P OB98/GEN NMR

erre ene a

0 1
  C       41.521     131.777     -57.964
  O       40.664     131.432     -56.894
  H       41.314     132.810     -58.261
  H       41.339     131.120     -58.820
  H       42.567     131.703     -57.651
  P       40.795     129.937     -56.325
  C       38.998     128.233     -57.097
  O       40.157     128.976     -57.444
  C       37.738     129.037     -57.405
  O       37.832     129.656     -58.708
  C       36.452     128.220     -57.405
  O       35.953     128.046     -56.088
  C       35.546     129.086     -58.266
  O       34.979     130.176     -57.510
  C       36.521     129.609     -59.331
  N       33.726     127.311     -62.856
  C       33.345     128.109     -61.796
  N       32.014     128.275     -61.619
  N       34.186     128.684     -60.978
  C       35.480     128.400     -61.258
  C       35.985     127.638     -62.288
  C       35.042     127.034     -63.204
  O       35.319     126.372     -64.200
  N       37.356     127.601     -62.248
  C       37.676     128.305     -61.181
  N       36.571     128.797     -60.536
  O       39.716     129.890     -55.142
  O       42.155     129.552     -55.845
  H       35.683     130.616     -57.004
  H       40.024     129.271     -54.454
  H       33.031     126.912     -63.461
  H       38.685     128.485     -60.836
  H       36.275     130.630     -59.649
  H       34.705     128.519     -58.670
  H       31.343     127.615     -61.989
  H       36.607     127.252     -57.901
  H       31.725     128.843     -60.831
  H       37.675     129.849     -56.666
  H       39.027     128.010     -56.025
  H       38.989     127.293     -57.657
  P       35.161     126.688     -55.763
  C       32.571     126.802     -55.525
  O       33.694     126.858     -56.394
  O       34.894     126.786     -54.188
  O       35.884     125.440     -56.135
  H       34.663     125.906     -53.834
  H       31.674     126.931     -56.093
  H       32.646     127.581     -54.795
  H       32.548     125.852     -55.033

 6  7  8  9  10  11  12  13  14  15  26  29  33  34 0
 6-311+G(2d,p)
 ****
 36  38  39  40  41 0
 6-311+G(2d,p)
 ****
 1  2  3  4  5  16  17  18  19  20  21  22  23  24  25 0
 3-21G
 ****
 27  28  30  31  32  35  37  42  43  44  45  46  47 0
 3-21G
 ****
 48  49 0
 3-21G
 ****


