%nproc=1
%NoSave
%Mem=1900MB
#P OB98/GEN NMR

erre ene a

0 1
  C     -287.082    -520.940     130.350
  O     -286.632    -521.551     129.158
  H     -286.213    -520.664     130.953
  H     -287.692    -521.643     130.922
  H     -287.660    -520.037     130.136
  P     -287.683    -521.811     127.977
  C     -286.166    -521.666     125.896
  O     -286.870    -522.519     126.787
  C     -284.757    -521.379     126.420
  O     -284.048    -522.646     126.572
  C     -283.909    -520.488     125.492
  O     -283.033    -519.713     126.320
  C     -283.137    -521.536     124.709
  O     -282.058    -520.976     124.009
  C     -282.813    -522.519     125.836
  N     -282.337    -523.812     125.364
  C     -280.982    -524.085     125.509
  O     -280.177    -523.314     126.032
  N     -280.563    -525.294     125.019
  C     -281.351    -526.228     124.410
  O     -280.926    -527.304     124.009
  C     -282.769    -525.869     124.258
  C     -283.190    -524.695     124.736
  O     -288.505    -520.636     127.569
  O     -288.597    -523.001     128.540
  H     -289.418    -522.633     128.917
  H     -281.580    -521.668     123.502
  H     -279.583    -525.510     125.118
  H     -283.414    -526.577     123.759
  H     -284.229    -524.394     124.641
  H     -282.075    -522.089     126.523
  H     -283.785    -522.004     123.962
  H     -284.514    -519.819     124.871
  H     -284.835    -520.940     127.424
  H     -286.726    -520.730     125.803
  H     -286.106    -522.144     124.912
  P     -283.220    -518.140     126.572
  C     -281.815    -518.030     128.732
  O     -281.960    -517.577     127.393
  O     -284.535    -517.787     127.193
  O     -283.079    -517.453     125.132
  H     -283.687    -516.692     125.079
  H     -280.944    -517.586     129.167
  H     -281.713    -519.095     128.739
  H     -282.679    -517.750     129.299

 6  7  8  9  10  11  12  13  14  15  16  27  31  32  33  34  35 0
 6-311+G(2d,p)
 ****
 36  37 0
 6-311+G(2d,p)
 ****
 1  2  3  4  5  17  18  19  20  21  22  23  24  25 0
 3-21G
 ****
 26  28  29  30  38  39  40  41  42  43  44  45 0
 3-21G
 ****


