%nproc=1
%NoSave
%Mem=1900MB
#P OB98/GEN NMR

erre ene a

0 1
  C     -323.569     113.919    -222.822
  O     -322.509     113.011    -223.034
  H     -324.434     113.363    -222.449
  H     -323.845     114.405    -223.761
  H     -323.294     114.673    -222.081
  P     -321.066     113.588    -223.423
  C     -320.252     113.805    -220.988
  O     -320.062     113.169    -222.246
  C     -319.393     113.123    -219.926
  O     -319.889     111.790    -219.670
  C     -317.937     112.942    -220.337
  O     -317.219     114.158    -220.260
  C     -317.497     111.868    -219.358
  O     -317.161     112.433    -218.085
  C     -318.763     110.989    -219.248
  N     -318.654     109.769    -220.045
  C     -317.762     108.809    -219.580
  O     -317.095     108.940    -218.556
  N     -317.613     107.702    -220.372
  C     -318.148     107.538    -221.617
  O     -317.794     106.654    -222.391
  C     -319.129     108.552    -222.029
  C     -319.324     109.612    -221.242
  O     -321.028     115.030    -223.806
  O     -320.602     112.650    -224.637
  H     -320.729     113.128    -225.478
  H     -317.990     112.823    -217.738
  H     -316.935     107.019    -220.063
  H     -319.629     108.421    -222.980
  H     -320.018     110.391    -221.540
  H     -318.945     110.710    -218.203
  H     -316.621     111.327    -219.722
  H     -317.887     112.537    -221.354
  H     -319.468     113.700    -218.996
  H     -321.309     113.723    -220.709
  H     -319.989     114.863    -221.080
  P     -316.042     114.468    -221.300
  C     -317.759     115.756    -222.713
  O     -316.452     115.763    -222.152
  O     -315.588     113.304    -222.112
  O     -314.848     115.015    -220.382
  H     -314.032     114.531    -220.607
  H     -317.919     116.664    -223.256
  H     -318.483     115.676    -221.929
  H     -317.858     114.922    -223.376

 6  7  8  9  10  11  12  13  14  15  16  27  31  32  33  34  35 0
 6-311+G(2d,p)
 ****
 36  37 0
 6-311+G(2d,p)
 ****
 1  2  3  4  5  17  18  19  20  21  22  23  24  25 0
 3-21G
 ****
 26  28  29  30  38  39  40  41  42  43  44  45 0
 3-21G
 ****


