%nproc=1
%NoSave
%Mem=1900MB
#P OB98/GEN NMR

erre ene a

0 1
  C      578.664      32.094    -620.471
  O      579.082      31.423    -621.663
  P      577.947      31.052    -622.751
  C      578.394      28.498    -622.379
  O      578.256      29.585    -623.283
  C      578.771      27.201    -623.141
  O      577.592      26.735    -623.846
  C      579.842      27.360    -624.196
  O      580.377      26.055    -624.515
  C      579.056      27.866    -625.389
  O      579.760      27.680    -626.614
  C      577.729      27.062    -625.262
  N      576.537      27.816    -625.713
  C      576.538      28.327    -627.007
  O      577.471      28.196    -627.806
  N      575.429      29.041    -627.379
  C      574.316      29.262    -626.599
  O      573.392      29.987    -626.945
  C      574.301      28.578    -625.294
  C      575.398      27.920    -624.925
  O      578.296      32.023    -623.980
  O      576.551      31.276    -622.253
  H      580.699      27.910    -626.429
  H      577.650      32.749    -624.022
  H      575.447      29.478    -628.293
  H      573.411      28.674    -624.701
  H      575.410      27.421    -623.948
  H      577.763      26.131    -625.840
  H      578.851      28.925    -625.281
  H      580.663      28.027    -623.936
  H      579.044      26.431    -622.410
  H      577.486      28.358    -621.806
  H      579.195      28.725    -621.659
  P      581.414      25.385    -623.471
  C      583.440      25.277    -625.031
  O      582.446      24.534    -624.338
  O      580.804      24.683    -622.306
  O      582.297      26.659    -623.009
  H      582.758      26.452    -622.160
  H      584.345      24.653    -625.135
  H      583.715      26.193    -624.513
  H      583.072      25.510    -626.038
  H      579.514      32.275    -619.847
  H      577.960      31.483    -619.946
  H      578.205      33.026    -620.728

 3  4  5  6  7  8  9  10  11  12  13  23  28  29  30  31  32 0
 6-311+G(2d,p)
 ****
 33  34 0
 6-311+G(2d,p)
 ****
 1  2  14  15  16  17  18  19  20  21  22  24  25  26  27 0
 3-21G
 ****
 35  36  37  38  39  40  41  42  43  44  45 0
 3-21G
 ****


