%nproc=1
%NoSave
%Mem=1900MB
#P OB98/GEN NMR

erre ene a

0 1
  C      -45.160      48.678    -122.230
  O      -46.528      48.319    -122.270
  P      -47.621      49.176    -121.478
  C      -48.778      48.766    -119.230
  O      -47.541      48.751    -119.931
  C      -48.655      48.079    -117.872
  O      -48.389      46.665    -118.079
  C      -47.536      48.627    -116.974
  O      -48.001      48.522    -115.625
  C      -46.408      47.636    -117.202
  O      -45.444      47.644    -116.157
  C      -47.204      46.341    -117.322
  N      -43.009      43.425    -117.178
  C      -43.435      44.425    -116.380
  N      -44.551      45.171    -116.499
  C      -45.263      44.794    -117.574
  C      -44.941      43.813    -118.496
  C      -43.756      43.092    -118.258
  N      -43.325      42.046    -119.042
  N      -45.894      43.760    -119.496
  C      -46.771      44.690    -119.179
  N      -46.463      45.295    -117.992
  O      -48.996      49.149    -122.059
  O      -47.024      50.660    -121.477
  H      -44.757      46.982    -116.365
  H      -47.522      51.218    -122.106
  H      -42.799      44.655    -115.530
  H      -47.635      44.965    -119.766
  H      -47.520      45.958    -116.344
  H      -45.892      47.875    -118.140
  H      -47.245      49.656    -117.205
  H      -49.624      48.152    -117.362
  H      -49.517      48.235    -119.837
  H      -42.537      41.515    -118.705
  H      -43.984      41.609    -119.684
  H      -49.118      49.800    -119.100
  P      -47.492      49.567    -114.522
  C      -45.372      49.748    -113.099
  O      -45.929      49.286    -114.316
  O      -48.303      49.621    -113.270
  O      -47.508      50.969    -115.299
  H      -47.486      51.700    -114.653
  H      -45.162      50.818    -113.179
  H      -44.437      49.214    -112.911
  H      -46.054      49.575    -112.262
  H      -44.593      47.987    -122.818
  H      -44.814      48.653    -121.218
  H      -45.039      49.665    -122.624

 3  4  5  6  7  8  9  10  11  12  22  25  29  30  31  32 0
 6-311+G(2d,p)
 ****
 33  36  37 0
 6-311+G(2d,p)
 ****
 1  2  13  14  15  16  17  18  19  20  21  23  24  26 0
 3-21G
 ****
 27  28  34  35  38  39  40  41  42  43  44  45  46  47  48 0
 3-21G
 ****


