%nproc=1
%NoSave
%Mem=1900MB
#P OB98/GEN NMR

erre ene a

0 1
  C     -362.076    -171.572    -457.864
  O     -361.715    -172.561    -456.919
  H     -362.389    -172.065    -458.787
  H     -361.211    -170.937    -458.078
  H     -362.904    -170.961    -457.492
  P     -361.542    -172.079    -455.398
  C     -359.515    -171.496    -453.883
  O     -359.982    -171.750    -455.198
  C     -357.997    -171.355    -453.876
  O     -357.371    -172.622    -454.168
  C     -357.452    -170.365    -454.899
  O     -357.507    -169.028    -454.413
  C     -356.017    -170.841    -455.022
  O     -355.256    -170.392    -453.878
  C     -356.183    -172.368    -454.971
  N     -354.363    -175.872    -458.159
  C     -353.886    -175.461    -456.929
  N     -352.761    -176.065    -456.488
  N     -354.459    -174.539    -456.194
  C     -355.564    -174.006    -456.773
  C     -356.130    -174.327    -457.987
  C     -355.498    -175.357    -458.777
  O     -355.887    -175.768    -459.867
  N     -357.246    -173.570    -458.237
  C     -357.342    -172.782    -457.185
  N     -356.345    -173.004    -456.267
  O     -361.753    -173.437    -454.572
  O     -362.491    -171.021    -454.953
  H     -354.407    -170.869    -453.894
  H     -362.652    -173.439    -454.192
  H     -353.881    -176.578    -458.686
  H     -358.119    -172.042    -457.033
  H     -355.339    -172.862    -454.478
  H     -355.516    -170.452    -455.909
  H     -352.259    -176.764    -457.013
  H     -357.958    -170.461    -455.870
  H     -352.395    -175.775    -455.588
  H     -357.691    -171.070    -452.862
  H     -359.808    -172.331    -453.233
  H     -359.977    -170.574    -453.510
  P     -358.191    -167.910    -455.339
  C     -357.829    -167.074    -457.765
  O     -357.609    -168.110    -456.824
  O     -357.484    -166.562    -454.840
  O     -359.674    -167.818    -455.233
  H     -358.132    -166.002    -454.376
  H     -357.389    -167.344    -458.702
  H     -357.383    -166.169    -457.409
  H     -358.881    -166.927    -457.894

 6  7  8  9  10  11  12  13  14  15  26  29  33  34 0
 6-311+G(2d,p)
 ****
 36  38  39  40  41 0
 6-311+G(2d,p)
 ****
 1  2  3  4  5  16  17  18  19  20  21  22  23  24  25 0
 3-21G
 ****
 27  28  30  31  32  35  37  42  43  44  45  46  47 0
 3-21G
 ****
 48  49 0
 3-21G
 ****


