%nproc=1
%NoSave
%Mem=1900MB
#P OB98/GEN NMR

erre ene a

0 1
  C     -621.207     -81.053     177.865
  O     -619.990     -80.598     177.312
  P     -618.759     -80.342     178.313
  C     -619.009     -77.751     178.522
  O     -619.098     -79.021     179.160
  C     -618.575     -76.695     179.549
  O     -619.675     -76.350     180.415
  C     -617.459     -77.172     180.472
  O     -616.192     -77.115     179.838
  C     -617.598     -76.203     181.643
  O     -616.914     -74.961     181.372
  C     -619.127     -75.992     181.697
  N     -619.759     -76.731     182.789
  C     -619.663     -76.157     184.054
  O     -619.058     -75.097     184.268
  N     -620.239     -76.853     185.075
  C     -620.856     -78.070     184.979
  O     -621.307     -78.674     185.934
  C     -620.901     -78.649     183.619
  C     -620.353     -77.966     182.602
  O     -617.572     -79.880     177.350
  O     -618.382     -81.528     179.139
  H     -616.903     -74.467     182.213
  H     -616.714     -80.224     177.695
  H     -620.200     -76.439     185.995
  H     -621.380     -79.606     183.500
  H     -620.377     -78.377     181.602
  H     -619.358     -74.919     181.830
  H     -617.169     -76.606     182.572
  H     -617.676     -78.189     180.828
  H     -618.261     -75.791     179.008
  H     -619.981     -77.483     178.108
  H     -618.278     -77.810     177.705
  P     -615.220     -78.381     180.024
  C     -613.532     -77.877     181.963
  O     -614.807     -78.368     181.573
  O     -613.922     -77.877     179.232
  O     -615.820     -79.652     179.512
  H     -613.806     -76.914     179.305
  H     -613.207     -77.044     181.327
  H     -612.803     -78.697     181.891
  H     -613.586     -77.537     182.995
  H     -621.929     -81.178     177.085
  H     -621.567     -80.336     178.573
  H     -621.047     -81.990     178.356

 3  4  5  6  7  8  9  10  11  12  13  23  28  29  30  31  32 0
 6-311+G(2d,p)
 ****
 33  34 0
 6-311+G(2d,p)
 ****
 1  2  14  15  16  17  18  19  20  21  22  24  25  26 0
 3-21G
 ****
 27  35  36  37  38  39  40  41  42  43  44  45 0
 3-21G
 ****


