%nproc=1
%NoSave
%Mem=1900MB
#P OB98/GEN NMR

erre ene a

0 1
  C       24.797     -14.323      81.163
  O       23.864     -13.800      82.094
  P       23.407     -12.259      82.051
  C       21.843     -11.022      80.404
  O       22.820     -12.033      80.575
  C       21.958     -10.400      79.010
  O       23.182      -9.620      78.952
  C       22.003     -11.419      77.865
  O       21.323     -10.834      76.748
  C       23.488     -11.545      77.581
  O       23.756     -12.034      76.275
  C       23.952     -10.105      77.833
  N       25.382     -10.018      78.102
  C       26.247      -9.949      77.008
  O       25.815      -9.987      75.858
  N       27.596      -9.839      77.243
  C       28.048      -9.883      78.458
  N       29.385      -9.709      78.641
  C       27.178     -10.063      79.635
  C       25.871     -10.100      79.387
  O       24.456     -11.284      82.461
  O       22.085     -12.215      82.945
  H       23.284     -11.471      75.633
  H       22.276     -12.108      83.911
  H       27.605     -10.122      80.628
  H       25.157     -10.207      80.192
  H       23.698      -9.470      76.977
  H       23.940     -12.237      78.300
  H       21.523     -12.368      78.123
  H       21.121      -9.705      78.871
  H       29.921      -9.416      77.830
  H       22.016     -10.243      81.153
  H       29.755      -9.409      79.536
  H       20.844     -11.441      80.566
  P       20.601     -11.813      75.698
  C       18.553     -13.403      75.745
  O       19.488     -12.649      76.487
  O       21.740     -12.919      75.452
  O       20.195     -11.205      74.395
  H       21.604     -13.323      74.574
  H       17.881     -13.911      76.442
  H       19.063     -14.161      75.141
  H       17.960     -12.751      75.099
  H       24.961     -15.361      81.367
  H       25.722     -13.792      81.249
  H       24.412     -14.211      80.171

 3  4  5  6  7  8  9  10  11  12  13  23  27  28  29  30  32 0
 6-311+G(2d,p)
 ****
 34  35 0
 6-311+G(2d,p)
 ****
 1  2  14  15  16  17  18  19  20  21  22  24  25  26 0
 3-21G
 ****
 31  33  36  37  38  39  40  41  42  43  44  45  46 0
 3-21G
 ****


