%nproc=1
%NoSave
%Mem=1900MB
#P OB98/GEN NMR

erre ene a

0 1
  C       -2.847     -20.615     129.615
  O       -2.661     -21.202     128.339
  P       -3.570     -20.658     127.132
  C       -5.614     -22.250     127.327
  O       -5.094     -20.944     127.548
  C       -6.500     -22.292     126.080
  O       -6.836     -23.670     125.789
  C       -7.805     -21.504     126.216
  O       -8.085     -20.900     124.952
  C       -8.839     -22.579     126.488
  O      -10.148     -22.160     126.107
  C       -8.272     -23.754     125.676
  N       -8.770     -25.042     126.149
  C      -10.125     -25.312     125.936
  O      -10.854     -24.451     125.444
  N      -10.629     -26.526     126.331
  C       -9.872     -27.354     126.981
  N      -10.415     -28.544     127.348
  C       -8.470     -27.056     127.334
  C       -7.983     -25.905     126.873
  O       -3.299     -21.723     125.971
  O       -3.264     -19.260     126.703
  H      -10.753     -22.931     126.196
  H       -3.349     -21.301     125.092
  H       -7.892     -27.766     127.911
  H       -6.959     -25.614     127.065
  H       -8.528     -23.649     124.614
  H       -8.853     -22.822     127.558
  H       -7.757     -20.734     126.991
  H       -5.915     -21.913     125.233
  H      -11.382     -28.719     127.107
  H       -6.221     -22.542     128.188
  H       -9.901     -29.251     127.858
  H       -4.785     -22.960     127.237
  P       -8.899     -19.519     124.952
  C      -11.098     -20.658     124.278
  O      -10.414     -19.931     125.278
  O       -8.985     -19.201     123.380
  O       -8.333     -18.362     125.705
  H       -9.412     -18.336     123.245
  H      -12.059     -20.988     124.680
  H      -10.521     -21.536     123.979
  H      -11.283     -20.018     123.411
  H       -2.181     -21.070     130.318
  H       -3.858     -20.765     129.933
  H       -2.643     -19.566     129.558

 3  4  5  6  7  8  9  10  11  12  13  21  23  27  28  29  30  32 0
 6-311+G(2d,p)
 ****
 34  35 0
 6-311+G(2d,p)
 ****
 1  2  14  15  16  17  18  19  20  22  24  25  26 0
 3-21G
 ****
 31  33  36  37  38  39  40  41  42  43  44  45  46 0
 3-21G
 ****


