%nproc=1
%NoSave
%Mem=1900MB
#P OB98/GEN NMR

erre ene a

0 1
  C      319.627    -265.004     -53.263
  O      318.920    -265.311     -54.447
  H      319.530    -265.854     -52.573
  H      319.206    -264.117     -52.783
  H      320.692    -264.849     -53.471
  P      319.031    -264.299     -55.692
  C      316.794    -263.151     -56.283
  O      317.946    -263.142     -55.445
  C      315.810    -264.214     -55.803
  O      315.389    -263.929     -54.445
  C      314.527    -264.287     -56.628
  O      314.746    -264.944     -57.855
  C      313.608    -265.024     -55.663
  O      313.849    -266.438     -55.705
  C      314.040    -264.429     -54.303
  N      313.135    -263.376     -53.826
  C      311.978    -263.800     -53.162
  O      311.696    -264.984     -53.000
  N      311.157    -262.801     -52.728
  C      311.296    -261.466     -52.973
  O      310.472    -260.622     -52.625
  C      312.518    -261.081     -53.694
  C      313.372    -262.039     -54.088
  O      318.985    -264.930     -57.044
  O      320.420    -263.543     -55.441
  H      313.566    -266.743     -56.588
  H      321.099    -263.891     -56.059
  H      310.309    -263.088     -52.251
  H      312.679    -260.033     -53.901
  H      314.272    -261.775     -54.625
  H      314.076    -265.217     -53.537
  H      312.555    -264.875     -55.899
  H      314.131    -263.277     -56.788
  H      316.324    -265.185     -55.800
  H      317.105    -263.382     -57.311
  H      316.335    -262.154     -56.263
  P      313.797    -264.636     -59.110
  C      312.624    -266.755     -59.964
  O      312.569    -265.657     -59.056
  O      314.491    -264.540     -60.430
  O      313.116    -263.233     -58.730
  H      313.352    -262.562     -59.408
  H      311.755    -267.366     -59.838
  H      313.501    -267.336     -59.768
  H      312.658    -266.386     -60.968

 6  7  8  9  10  11  12  13  14  15  16  26  31  32  33  34  35 0
 6-311+G(2d,p)
 ****
 36  37 0
 6-311+G(2d,p)
 ****
 1  2  3  4  5  17  18  19  20  21  22  23  24  25 0
 3-21G
 ****
 27  28  29  30  38  39  40  41  42  43  44  45 0
 3-21G
 ****


