%nproc=1
%NoSave
%Mem=1900MB
#P OB98/GEN NMR

erre ene a

0 1
  C     1166.242    -328.106    -651.103
  O     1167.162    -327.474    -651.981
  P     1167.384    -325.892    -651.839
  C     1169.817    -325.420    -651.073
  O     1168.475    -325.675    -650.675
  C     1170.393    -324.208    -650.337
  O     1169.665    -323.016    -650.758
  C     1170.283    -324.276    -648.810
  O     1171.419    -323.595    -648.269
  C     1169.033    -323.465    -648.511
  O     1169.002    -322.999    -647.166
  C     1169.160    -322.368    -649.570
  N     1166.295    -318.221    -648.714
  C     1167.541    -318.560    -648.312
  N     1168.243    -319.674    -648.583
  C     1167.524    -320.515    -649.353
  C     1166.226    -320.331    -649.805
  C     1165.602    -319.114    -649.463
  N     1164.332    -318.770    -649.871
  N     1165.810    -321.416    -650.538
  C     1166.831    -322.242    -650.530
  N     1167.893    -321.724    -649.850
  O     1166.021    -325.403    -651.159
  O     1167.648    -325.170    -653.115
  H     1168.294    -322.336    -647.086
  H     1165.508    -324.867    -651.795
  H     1168.052    -317.814    -647.706
  H     1166.854    -323.218    -650.997
  H     1169.878    -321.598    -649.278
  H     1168.141    -324.085    -648.679
  H     1170.230    -325.296    -648.413
  H     1171.436    -324.080    -650.645
  H     1169.837    -325.222    -652.150
  H     1164.012    -317.832    -649.707
  H     1163.883    -319.338    -650.582
  H     1170.429    -326.306    -650.873
  P     1172.315    -324.392    -647.201
  C     1174.025    -325.649    -648.696
  O     1172.825    -325.719    -647.929
  O     1171.236    -324.921    -646.154
  O     1173.362    -323.557    -646.540
  H     1171.647    -325.032    -645.275
  H     1174.539    -326.614    -648.623
  H     1174.681    -324.860    -648.347
  H     1173.756    -325.465    -649.746
  H     1166.204    -329.153    -651.320
  H     1165.270    -327.679    -651.237
  H     1166.559    -327.962    -650.091

 3  4  5  6  7  8  9  10  11  12  22  25  29  30  31  32 0
 6-311+G(2d,p)
 ****
 33  36  37 0
 6-311+G(2d,p)
 ****
 1  2  13  14  15  16  17  18  19  20  21  23  24  26 0
 3-21G
 ****
 27  28  34  35  38  39  40  41  42  43  44  45  46  47  48 0
 3-21G
 ****


