%nproc=1
%NoSave
%Mem=1900MB
#P OB98/GEN NMR

erre ene a

0 1
  C     -229.017    -449.845     176.750
  O     -229.188    -449.844     175.328
  P     -228.049    -449.365     174.303
  C     -228.645    -450.993     172.395
  O     -228.538    -449.634     172.799
  C     -230.083    -451.510     172.516
  O     -230.982    -450.687     171.710
  C     -230.273    -452.970     172.065
  O     -231.213    -453.560     172.970
  C     -230.867    -452.798     170.676
  O     -231.523    -453.953     170.188
  C     -231.788    -451.601     170.934
  N     -232.310    -450.942     169.742
  C     -233.573    -450.343     169.833
  O     -234.247    -450.416     170.856
  N     -234.061    -449.678     168.732
  C     -233.365    -449.620     167.641
  N     -233.904    -448.939     166.594
  C     -232.042    -450.253     167.497
  C     -231.582    -450.884     168.576
  O     -226.698    -449.936     174.600
  O     -228.017    -447.767     174.416
  H     -227.097    -447.457     174.317
  H     -231.932    -453.727     169.332
  H     -231.491    -450.174     166.574
  H     -230.600    -451.353     168.559
  H     -232.621    -451.914     171.575
  H     -230.062    -452.551     169.978
  H     -229.350    -453.559     172.085
  H     -230.400    -451.389     173.558
  H     -234.810    -448.510     166.734
  H     -227.999    -451.598     173.038
  H     -233.445    -448.824     165.704
  H     -228.291    -451.088     171.363
  P     -230.721    -454.062     174.412
  C     -232.992    -454.155     175.682
  O     -231.931    -454.869     175.083
  O     -230.729    -452.695     175.256
  O     -229.367    -454.691     174.463
  H     -230.093    -452.773     175.993
  H     -233.937    -454.613     175.379
  H     -233.005    -453.103     175.385
  H     -232.901    -454.220     176.767
  H     -229.910    -450.205     177.216
  H     -228.816    -448.849     177.086
  H     -228.197    -450.482     177.010

 3  4  5  6  7  8  9  10  11  12  13  24  27  28  29  30  32 0
 6-311+G(2d,p)
 ****
 34  35 0
 6-311+G(2d,p)
 ****
 1  2  14  15  16  17  18  19  20  21  22  23  25  26 0
 3-21G
 ****
 31  33  36  37  38  39  40  41  42  43  44  45  46 0
 3-21G
 ****


