%nproc=1
%NoSave
%Mem=1900MB
#P OB98/GEN NMR

erre ene a

0 1
  C      452.728    -766.421     832.548
  O      453.421    -765.744     831.516
  H      452.307    -765.672     833.230
  H      453.413    -767.060     833.105
  H      451.907    -767.017     832.137
  P      453.993    -766.595     830.283
  C      455.362    -764.539     829.514
  O      455.387    -765.922     829.862
  C      456.780    -764.031     829.280
  O      457.515    -764.062     830.534
  C      457.588    -764.867     828.303
  O      457.205    -764.623     826.976
  C      459.006    -764.438     828.664
  O      459.335    -763.193     828.017
  C      458.907    -764.248     830.196
  N      459.488    -765.375     830.921
  C      460.803    -765.241     831.317
  O      461.491    -764.231     831.115
  N      461.364    -766.341     831.940
  C      460.773    -767.557     832.050
  O      461.389    -768.572     832.378
  C      459.366    -767.629     831.669
  C      458.788    -766.558     831.115
  O      453.043    -766.835     829.163
  O      454.454    -767.972     830.966
  H      453.777    -768.651     830.780
  H      460.235    -762.965     828.323
  H      462.340    -766.255     832.205
  H      458.837    -768.571     831.809
  H      457.754    -766.592     830.787
  H      459.432    -763.323     830.491
  H      459.740    -765.174     828.358
  H      457.484    -765.935     828.547
  H      456.719    -762.976     828.952
  H      454.891    -763.983     830.332
  H      454.747    -764.417     828.608
  P      457.516    -765.719     825.831
  C      456.498    -764.179     824.023
  O      457.635    -764.950     824.432
  O      456.614    -766.912     825.814
  O      459.036    -766.157     826.121
  H      459.073    -767.130     826.141
  H      456.701    -763.717     823.079
  H      456.298    -763.424     824.754
  H      455.647    -764.820     823.931

 6  7  8  9  10  11  12  13  14  15  16  27  31  32  33  34  35 0
 6-311+G(2d,p)
 ****
 36  37 0
 6-311+G(2d,p)
 ****
 1  2  3  4  5  17  18  19  20  21  22  23  24  25 0
 3-21G
 ****
 26  28  29  30  38  39  40  41  42  43  44  45 0
 3-21G
 ****


