%nproc=1
%NoSave
%Mem=1900MB
#P OB98/GEN NMR

erre ene a

0 1
  C     -168.464     756.814    -575.582
  O     -169.005     758.068    -575.911
  H     -169.057     756.027    -576.064
  H     -168.509     756.665    -574.495
  H     -167.422     756.733    -575.915
  P     -168.093     759.361    -575.648
  C     -167.559     759.574    -578.182
  O     -167.043     759.434    -576.862
  C     -166.427     759.510    -579.210
  O     -165.719     758.243    -579.028
  C     -166.894     759.585    -580.681
  O     -165.928     760.320    -581.425
  C     -166.833     758.126    -581.114
  O     -166.712     758.011    -582.538
  C     -165.612     757.647    -580.337
  N     -164.076     753.565    -582.851
  C     -163.812     754.910    -583.065
  N     -163.081     755.227    -584.153
  N     -164.246     755.853    -582.282
  C     -164.964     755.401    -581.230
  C     -165.305     754.117    -580.906
  C     -164.831     753.059    -581.783
  O     -165.052     751.870    -581.669
  N     -166.083     754.074    -579.778
  C     -166.239     755.343    -579.425
  N     -165.573     756.200    -580.281
  O     -167.196     758.904    -574.396
  O     -168.832     760.628    -575.359
  H     -165.801     758.264    -582.786
  H     -167.608     759.215    -573.562
  H     -163.742     752.868    -583.503
  H     -166.836     755.709    -578.594
  H     -164.666     757.968    -580.795
  H     -167.745     757.604    -580.796
  H     -162.681     754.545    -584.782
  H     -167.885     760.042    -580.793
  H     -162.834     756.201    -584.297
  H     -165.707     760.303    -578.988
  H     -168.067     760.548    -578.266
  H     -168.292     758.783    -578.367
  P     -165.759     761.897    -581.100
  C     -163.692     761.618    -579.516
  O     -165.047     762.032    -579.660
  O     -167.258     762.370    -580.830
  O     -165.124     762.680    -582.203
  H     -167.377     763.280    -581.122
  H     -163.377     761.774    -578.505
  H     -163.072     762.189    -580.175
  H     -163.609     760.579    -579.759

 6  7  8  9  10  11  12  13  14  15  26  29  33  34 0
 6-311+G(2d,p)
 ****
 36  38  39  40  41 0
 6-311+G(2d,p)
 ****
 1  2  3  4  5  16  17  18  19  20  21  22  23  24  25 0
 3-21G
 ****
 27  28  30  31  32  35  37  42  43  44  45  46  47 0
 3-21G
 ****
 48  49 0
 3-21G
 ****


