%nproc=1
%NoSave
%Mem=1900MB
#P OB98/GEN NMR

erre ene a

0 1
  C     1304.293     626.160     519.636
  O     1303.563     627.341     519.919
  P     1302.773     627.526     521.287
  C     1304.862     628.489     522.575
  O     1303.832     627.522     522.480
  C     1304.466     629.542     523.634
  O     1304.099     628.892     524.868
  C     1305.613     630.513     523.914
  O     1305.482     631.687     523.123
  C     1305.454     630.779     525.415
  O     1304.436     631.760     525.648
  C     1304.989     629.386     525.922
  N     1306.010     628.333     526.180
  C     1306.837     628.453     527.287
  O     1306.755     629.360     528.106
  N     1307.798     627.476     527.401
  C     1307.958     626.403     526.569
  O     1308.960     625.699     526.564
  C     1306.896     626.196     525.587
  C     1306.008     627.178     525.420
  O     1302.032     626.115     521.468
  O     1301.827     628.675     521.354
  H     1304.661     632.534     525.133
  H     1301.104     626.187     521.175
  H     1308.486     627.628     528.150
  H     1306.912     625.294     524.993
  H     1305.231     627.064     524.671
  H     1304.382     629.490     526.842
  H     1306.390     631.167     525.836
  H     1306.587     630.016     523.754
  H     1303.601     630.092     523.273
  H     1304.999     628.974     521.600
  H     1305.813     628.018     522.854
  P     1306.585     632.843     523.263
  C     1307.616     631.833     521.125
  O     1307.879     632.287     522.459
  O     1306.848     633.320     524.642
  O     1305.996     634.006     522.321
  H     1305.529     634.659     522.874
  H     1308.593     631.672     520.647
  H     1307.052     632.567     520.578
  H     1307.074     630.876     521.196
  H     1304.745     626.243     518.670
  H     1303.631     625.320     519.649
  H     1305.054     626.025     520.376

 3  4  5  6  7  8  9  10  11  12  13  23  28  29  30  31  32 0
 6-311+G(2d,p)
 ****
 33  34 0
 6-311+G(2d,p)
 ****
 1  2  14  15  16  17  18  19  20  21  22  24  25  26  27 0
 3-21G
 ****
 35  36  37  38  39  40  41  42  43  44  45 0
 3-21G
 ****


