%nproc=1
%NoSave
%Mem=1900MB
#P OB98/GEN NMR

erre ene a

0 1
  C      -62.387     582.917     516.604
  O      -63.704     582.414     516.683
  P      -64.996     583.332     516.880
  C      -65.584     582.697     519.357
  O      -65.946     582.639     517.980
  C      -66.790     582.370     520.255
  O      -66.324     582.265     521.627
  C      -67.840     583.498     520.209
  O      -69.185     583.040     520.161
  C      -67.441     584.373     521.396
  O      -68.480     585.225     521.854
  C      -66.932     583.338     522.400
  N      -65.753     586.968     525.754
  C      -66.966     586.710     525.146
  N      -67.932     587.639     525.317
  N      -67.197     585.644     524.410
  C      -66.098     584.866     524.234
  C      -64.850     585.016     524.790
  C      -64.619     586.184     525.626
  O      -63.531     586.504     526.100
  N      -63.966     584.061     524.336
  C      -64.681     583.356     523.489
  N      -65.972     583.815     523.365
  O      -65.630     583.877     515.648
  O      -64.387     584.578     517.710
  H      -68.118     585.758     522.579
  H      -64.878     585.386     517.428
  H      -65.610     587.843     526.239
  H      -64.298     582.506     522.912
  H      -67.752     582.903     522.972
  H      -66.621     585.032     521.064
  H      -67.734     588.530     525.747
  H      -67.735     584.081     519.286
  H      -68.731     587.602     524.689
  H      -67.211     581.404     519.964
  H      -65.230     583.709     519.539
  H      -64.751     582.008     519.562
  P      -70.449     583.729     519.480
  C      -71.685     584.579     521.567
  O      -71.689     583.654     520.489
  O      -70.879     582.730     518.303
  O      -70.186     585.098     518.911
  H      -71.145     583.237     517.514
  H      -72.405     584.241     522.315
  H      -71.974     585.564     521.207
  H      -70.688     584.625     522.030
  H      -61.702     582.105     516.472
  H      -62.150     583.440     517.507
  H      -62.310     583.587     515.773

 3  4  5  6  7  8  9  10  11  12  23  26  30  31 0
 6-311+G(2d,p)
 ****
 33  35  36  37  38 0
 6-311+G(2d,p)
 ****
 1  2  13  14  15  16  17  18  19  20  21  22  24  25 0
 3-21G
 ****
 27  28  29  32  34  39  40  41  42  43  44  45  46  47  48  49 0
 3-21G
 ****


