%nproc=1
%NoSave
%Mem=1900MB
#P OB98/GEN NMR

erre ene a

0 1
  C     -212.169    -367.098    -186.888
  O     -211.422    -367.614    -185.804
  H     -211.741    -366.138    -187.181
  H     -213.205    -366.943    -186.589
  H     -212.126    -367.785    -187.741
  P     -211.869    -369.041    -185.221
  C     -213.475    -367.939    -183.491
  O     -213.340    -368.802    -184.607
  C     -214.948    -367.800    -183.084
  O     -215.469    -369.112    -182.759
  C     -215.167    -366.898    -181.874
  O     -216.302    -366.050    -182.106
  C     -215.441    -367.851    -180.728
  O     -216.222    -367.265    -179.694
  C     -216.088    -369.047    -181.460
  N     -215.926    -370.292    -180.721
  C     -216.989    -370.682    -179.895
  O     -217.990    -369.979    -179.802
  N     -216.867    -371.828    -179.151
  C     -215.752    -372.502    -179.184
  N     -215.677    -373.611    -178.411
  C     -214.585    -372.095    -180.003
  C     -214.750    -371.001    -180.744
  O     -210.947    -369.203    -183.921
  O     -211.767    -370.185    -186.178
  H     -216.512    -367.996    -179.083
  H     -210.955    -370.127    -183.581
  H     -213.671    -372.675    -179.981
  H     -213.939    -370.636    -181.378
  H     -217.164    -368.853    -181.607
  H     -214.485    -368.173    -180.285
  H     -214.306    -366.265    -181.645
  H     -215.512    -367.449    -183.956
  H     -216.486    -373.848    -177.857
  H     -213.076    -366.949    -183.761
  H     -214.853    -374.192    -178.323
  H     -212.901    -368.334    -182.652
  P     -215.982    -364.556    -182.610
  C     -215.751    -363.215    -180.405
  O     -215.083    -363.854    -181.476
  O     -217.386    -363.816    -182.507
  O     -215.408    -364.510    -183.986
  H     -217.813    -363.770    -183.373
  H     -215.030    -362.797    -179.734
  H     -216.352    -363.929    -179.883
  H     -216.376    -362.436    -180.789

 6  7  8  9  10  11  12  13  14  15  16  26  30  31  32  33  35 0
 6-311+G(2d,p)
 ****
 37  38 0
 6-311+G(2d,p)
 ****
 1  2  3  4  5  17  18  19  20  21  22  23  24  25 0
 3-21G
 ****
 27  28  29  34  36  39  40  41  42  43  44  45  46 0
 3-21G
 ****


