%nproc=1
%NoSave
%Mem=1900MB
#P OB98/GEN NMR

erre ene a

0 1
  C      217.466     328.245    1162.623
  O      218.467     328.901    1163.372
  H      217.848     328.063    1161.619
  H      216.574     328.871    1162.552
  H      217.217     327.286    1163.089
  P      218.089     329.296    1164.885
  C      220.598     329.007    1165.490
  O      219.464     329.870    1165.501
  C      221.887     329.810    1165.415
  O      221.999     330.470    1164.139
  C      222.018     330.917    1166.469
  O      222.487     330.376    1167.700
  C      223.041     331.829    1165.827
  O      224.367     331.307    1166.053
  C      222.683     331.743    1164.338
  N      222.314     335.559    1160.896
  C      223.342     334.767    1161.264
  N      223.398     333.820    1162.232
  C      222.193     333.689    1162.817
  C      221.047     334.422    1162.563
  C      221.132     335.382    1161.533
  N      220.065     336.186    1161.162
  N      220.006     334.028    1163.378
  C      220.517     333.026    1164.086
  N      221.843     332.824    1163.818
  O      217.409     328.235    1165.682
  O      217.241     330.631    1164.645
  H      224.976     331.855    1165.518
  H      217.650     331.183    1163.945
  H      224.282     334.945    1160.720
  H      219.954     332.411    1164.790
  H      223.588     331.719    1163.713
  H      223.022     332.843    1166.250
  H      221.059     331.461    1166.601
  H      222.748     329.111    1165.486
  H      220.546     328.318    1164.634
  H      220.271     336.964    1160.569
  H      219.229     336.138    1161.728
  H      220.581     328.409    1166.408
  P      222.619     331.278    1169.009
  C      222.409     329.353    1170.714
  O      223.276     330.312    1170.116
  O      221.352     331.965    1169.421
  O      223.799     332.303    1168.676
  H      223.783     333.055    1169.292
  H      222.956     328.774    1171.428
  H      222.016     328.707    1169.957
  H      221.604     329.858    1171.206

 6  7  8  9  10  11  12  13  14  15  25  28  32  33  34  35 0
 6-311+G(2d,p)
 ****
 36  39  40 0
 6-311+G(2d,p)
 ****
 1  2  3  4  5  16  17  18  19  20  21  22  23  24 0
 3-21G
 ****
 26  27  29  30  31  37  38  41  42  43  44  45  46  47 0
 3-21G
 ****
 48 0
 3-21G
 ****


