%nproc=1
%NoSave
%Mem=1900MB
#P OB98/GEN NMR

erre ene a

0 1
  C     -487.196     806.344    -246.461
  O     -488.465     806.092    -247.064
  P     -489.195     804.702    -246.748
  C     -489.400     802.439    -248.038
  O     -488.628     803.612    -247.771
  C     -489.030     801.856    -249.400
  O     -489.582     802.694    -250.451
  C     -487.531     801.732    -249.647
  O     -487.311     800.567    -250.464
  C     -487.222     802.972    -250.472
  O     -486.011     802.891    -251.205
  C     -488.487     803.034    -251.336
  N     -488.681     804.346    -251.975
  C     -488.293     804.481    -253.294
  O     -487.791     803.570    -253.974
  N     -488.432     805.728    -253.840
  C     -488.827     806.842    -253.177
  O     -488.813     807.968    -253.681
  C     -489.229     806.649    -251.777
  C     -489.148     805.427    -251.234
  O     -490.701     804.946    -247.254
  O     -489.160     804.280    -245.311
  H     -485.296     802.707    -250.576
  H     -491.278     805.149    -246.506
  H     -488.156     805.846    -254.809
  H     -489.591     807.525    -251.221
  H     -489.420     805.260    -250.206
  H     -488.450     802.258    -252.104
  H     -487.149     803.844    -249.809
  H     -486.924     801.675    -248.740
  H     -489.521     800.879    -249.488
  H     -490.451     802.703    -248.022
  H     -489.221     801.701    -247.235
  P     -486.095     799.582    -250.073
  C     -483.492     799.846    -249.903
  O     -484.752     800.443    -250.195
  O     -486.054     798.628    -251.344
  O     -486.315     798.844    -248.782
  H     -486.161     799.114    -252.195
  H     -483.473     798.801    -250.199
  H     -483.288     799.937    -248.850
  H     -482.728     800.383    -250.466
  H     -486.841     807.306    -246.767
  H     -486.499     805.592    -246.768
  H     -487.297     806.323    -245.396

 3  4  5  6  7  8  9  10  11  12  13  23  28  29  30  31  32 0
 6-311+G(2d,p)
 ****
 33  34 0
 6-311+G(2d,p)
 ****
 1  2  14  15  16  17  18  19  20  21  22  24  25  26 0
 3-21G
 ****
 27  35  36  37  38  39  40  41  42  43  44  45 0
 3-21G
 ****


