%nproc=1
%NoSave
%Mem=1900MB
#P OB98/GEN NMR

erre ene a

0 1
  C      428.030     -91.719     448.389
  O      428.675     -92.670     449.206
  H      427.649     -92.220     447.496
  H      428.736     -90.942     448.080
  H      427.184     -91.263     448.919
  P      429.178     -92.229     450.661
  C      430.693     -90.335     451.543
  O      430.374     -91.179     450.444
  C      430.979     -88.923     451.044
  O      429.871     -88.435     450.255
  C      431.174     -87.903     452.160
  O      432.439     -88.034     452.781
  C      430.958     -86.602     451.403
  O      432.151     -86.206     450.717
  C      429.856     -86.992     450.393
  N      428.532     -86.517     450.817
  C      427.590     -86.363     449.808
  O      427.812     -86.609     448.625
  N      426.384     -85.850     450.195
  C      426.088     -85.358     451.439
  O      425.091     -84.687     451.681
  C      427.098     -85.607     452.473
  C      428.266     -86.156     452.124
  O      429.476     -93.340     451.610
  O      427.987     -91.301     451.203
  H      427.444     -91.812     451.834
  H      432.740     -85.824     451.404
  H      425.703     -85.697     449.462
  H      426.882     -85.296     453.494
  H      429.040     -86.316     452.862
  H      430.077     -86.582     449.402
  H      430.671     -85.786     452.072
  H      430.372     -88.015     452.905
  H      431.866     -88.956     450.394
  H      431.575     -90.735     452.048
  H      429.853     -90.333     452.246
  P      432.755     -87.251     454.145
  C      432.646     -84.781     454.854
  O      432.928     -85.693     453.793
  O      433.856     -87.829     454.972
  O      431.371     -87.280     454.941
  H      431.540     -87.594     455.859
  H      432.793     -83.778     454.511
  H      433.303     -84.976     455.676
  H      431.631     -84.905     455.171

 6  7  8  9  10  11  12  13  14  15  16  27  31  32  33  34  35 0
 6-311+G(2d,p)
 ****
 36  37 0
 6-311+G(2d,p)
 ****
 1  2  3  4  5  17  18  19  20  21  22  23  24  25 0
 3-21G
 ****
 26  28  29  30  38  39  40  41  42  43  44  45 0
 3-21G
 ****


