%nproc=1
%NoSave
%Mem=1900MB
#P OB98/GEN NMR

erre ene a

0 1
  C       74.017     -43.153      21.924
  O       73.752     -42.228      20.886
  P       74.955     -41.795      19.922
  C       75.165     -39.443      21.009
  O       74.950     -40.194      19.825
  C       75.125     -37.944      20.705
  O       75.279     -37.195      21.948
  C       76.228     -37.471      19.747
  O       75.686     -36.402      18.959
  C       77.274     -36.923      20.698
  O       78.187     -36.034      20.073
  C       76.369     -36.273      21.749
  N       77.067     -35.985      23.001
  C       77.441     -34.667      23.235
  O       77.221     -33.740      22.457
  N       78.146     -34.443      24.387
  C       78.583     -35.395      25.260
  O       79.311     -35.142      26.212
  C       78.158     -36.771      24.961
  C       77.432     -37.000      23.865
  O       74.455     -42.265      18.477
  O       76.279     -42.386      20.274
  H       78.515     -36.471      19.266
  H       74.876     -43.109      18.228
  H       78.415     -33.490      24.578
  H       78.469     -37.550      25.645
  H       77.122     -38.008      23.610
  H       75.936     -35.346      21.353
  H       77.850     -37.753      21.123
  H       76.615     -38.263      19.099
  H       74.136     -37.697      20.299
  H       76.142     -39.698      21.423
  H       74.407     -39.706      21.755
  P       75.587     -36.615      17.370
  C       77.031     -34.498      16.858
  O       75.805     -35.178      16.699
  O       74.016     -36.885      17.202
  O       76.443     -37.727      16.859
  H       73.474     -36.280      17.735
  H       77.875     -35.192      16.896
  H       77.003     -33.913      17.780
  H       77.171     -33.819      16.014
  H       73.118     -43.338      22.475
  H       74.760     -42.750      22.580
  H       74.372     -44.070      21.502

 3  4  5  6  7  8  9  10  11  12  13  23  28  29  30  31  32 0
 6-311+G(2d,p)
 ****
 33  34 0
 6-311+G(2d,p)
 ****
 1  2  14  15  16  17  18  19  20  21  22  24  25  26 0
 3-21G
 ****
 27  35  36  37  38  39  40  41  42  43  44  45 0
 3-21G
 ****


