%nproc=1
%NoSave
%Mem=1900MB
#P OB98/GEN NMR

erre ene a

0 1
  C      618.846     495.388    1045.189
  O      618.145     494.302    1044.587
  P      617.854     493.022    1045.535
  C      620.299     492.083    1045.560
  O      618.954     491.918    1045.148
  C      620.831     490.795    1046.151
  O      620.021     490.401    1047.308
  C      620.796     489.585    1045.182
  O      621.926     489.613    1044.341
  C      620.792     488.424    1046.159
  O      622.115     488.133    1046.646
  C      619.881     488.945    1047.302
  N      615.841     487.136    1049.742
  C      617.158     487.201    1050.158
  N      617.438     486.790    1051.427
  N      618.123     487.668    1049.396
  C      617.722     488.039    1048.160
  C      616.431     487.993    1047.633
  C      615.375     487.541    1048.498
  O      614.168     487.552    1048.227
  N      616.402     488.446    1046.352
  C      617.656     488.790    1046.091
  N      618.500     488.589    1047.162
  O      616.479     492.447    1044.938
  O      617.764     493.337    1047.006
  H      622.127     487.265    1047.085
  H      615.711     492.750    1045.491
  H      615.137     486.806    1050.387
  H      617.990     489.205    1045.159
  H      620.225     488.597    1048.274
  H      620.416     487.481    1045.702
  H      616.749     486.396    1052.037
  H      619.879     489.590    1044.599
  H      618.403     486.851    1051.733
  H      621.854     490.952    1046.511
  H      620.360     492.877    1046.294
  H      620.919     492.378    1044.677
  P      621.687     489.477    1042.754
  C      621.651     486.890    1042.822
  O      622.275     488.046    1042.310
  O      622.713     490.525    1042.144
  O      620.296     489.768    1042.325
  H      622.323     490.947    1041.320
  H      621.767     486.070    1042.075
  H      620.564     487.025    1043.006
  H      622.142     486.572    1043.736
  H      618.978     496.169    1044.470
  H      619.803     495.050    1045.529
  H      618.283     495.759    1046.020

 3  4  5  6  7  8  9  10  11  12  23  26  30  31 0
 6-311+G(2d,p)
 ****
 33  35  36  37  38 0
 6-311+G(2d,p)
 ****
 1  2  13  14  15  16  17  18  19  20  21  22  24  25 0
 3-21G
 ****
 27  28  29  32  34  39  40  41  42  43  44  45  46  47  48  49 0
 3-21G
 ****


