%nproc=1
%NoSave
%Mem=1900MB
#P OB98/GEN NMR

erre ene a

0 1
  C      -51.610     -71.783     -56.626
  O      -51.061     -70.534     -56.992
  H      -50.855     -72.354     -56.082
  H      -51.888     -72.337     -57.526
  H      -52.485     -71.651     -55.984
  P      -52.078     -69.416     -57.526
  C      -50.520     -67.409     -57.013
  O      -51.191     -68.164     -58.009
  C      -49.209     -66.849     -57.564
  O      -48.297     -67.951     -57.808
  C      -49.370     -66.077     -58.880
  O      -48.489     -64.950     -58.867
  C      -48.912     -67.072     -59.931
  O      -48.439     -66.437     -61.118
  C      -47.841     -67.844     -59.170
  N      -44.310     -71.015     -60.865
  C      -44.184     -69.782     -60.253
  N      -42.928     -69.321     -60.072
  N      -45.201     -69.065     -59.855
  C      -46.396     -69.667     -60.068
  C      -46.653     -70.879     -60.667
  C      -45.519     -71.649     -61.131
  O      -45.567     -72.736     -61.699
  N      -48.002     -71.127     -60.730
  C      -48.557     -70.067     -60.170
  N      -47.624     -69.159     -59.747
  O      -52.773     -68.887     -56.184
  O      -53.090     -69.890     -58.514
  H      -47.638     -65.923     -60.878
  H      -53.725     -69.101     -56.200
  H      -43.493     -71.518     -61.165
  H      -49.619     -69.905     -60.055
  H      -46.874     -67.326     -59.169
  H      -49.747     -67.728     -60.207
  H      -42.098     -69.841     -60.310
  H      -50.392     -65.736     -59.055
  H      -42.809     -68.436     -59.591
  H      -48.746     -66.219     -56.795
  H      -50.306     -68.060     -56.158
  H      -51.165     -66.589     -56.683
  P      -49.076     -63.573     -58.286
  C      -46.968     -62.770     -57.014
  O      -47.857     -62.544     -58.098
  O      -49.482     -63.955     -56.786
  O      -50.244     -63.046     -59.051
  H      -50.453     -63.997     -56.705
  H      -46.211     -62.014     -57.010
  H      -46.512     -63.732     -57.122
  H      -47.512     -62.734     -56.093

 6  7  8  9  10  11  12  13  14  15  26  29  33  34 0
 6-311+G(2d,p)
 ****
 36  38  39  40  41 0
 6-311+G(2d,p)
 ****
 1  2  3  4  5  16  17  18  19  20  21  22  23  24  25 0
 3-21G
 ****
 27  28  30  31  32  35  37  42  43  44  45  46  47 0
 3-21G
 ****
 48  49 0
 3-21G
 ****


