%nproc=1
%NoSave
%Mem=1900MB
#P OB98/GEN NMR

erre ene a

0 1
  C     -301.820     213.901    -385.612
  O     -301.500     215.236    -385.294
  H     -302.052     213.834    -386.679
  H     -302.702     213.582    -385.046
  H     -300.981     213.235    -385.393
  P     -300.972     215.538    -383.808
  C     -299.712     217.620    -384.721
  O     -300.620     217.106    -383.754
  C     -300.398     218.688    -385.579
  O     -301.148     218.030    -386.636
  C     -301.364     219.575    -384.789
  O     -301.267     220.916    -385.288
  C     -302.733     219.011    -385.136
  O     -303.780     219.975    -384.999
  C     -302.505     218.513    -386.572
  N     -303.468     217.471    -386.935
  C     -304.213     217.670    -388.097
  O     -304.040     218.696    -388.768
  N     -305.154     216.749    -388.459
  C     -305.409     215.746    -387.666
  N     -306.379     214.879    -388.058
  C     -304.697     215.526    -386.391
  C     -303.742     216.417    -386.091
  O     -299.532     214.837    -383.774
  O     -301.857     215.063    -382.708
  H     -304.602     219.590    -385.361
  H     -299.317     214.509    -382.882
  H     -304.957     214.697    -385.752
  H     -303.176     216.342    -385.168
  H     -302.601     219.337    -387.292
  H     -302.960     218.170    -384.475
  H     -301.182     219.570    -383.715
  H     -299.623     219.292    -386.066
  H     -306.852     215.073    -388.931
  H     -299.385     216.800    -385.374
  H     -306.692     214.098    -387.503
  H     -298.837     218.038    -384.216
  P     -300.257     221.898    -384.511
  C     -299.965     223.135    -386.776
  O     -300.112     223.240    -385.365
  O     -298.837     221.176    -384.686
  O     -300.609     222.091    -383.074
  H     -298.549     220.792    -383.831
  H     -299.881     224.114    -387.200
  H     -300.820     222.641    -387.188
  H     -299.084     222.571    -387.002

 6  7  8  9  10  11  12  13  14  15  16  26  30  31  32  33  35 0
 6-311+G(2d,p)
 ****
 37  38 0
 6-311+G(2d,p)
 ****
 1  2  3  4  5  17  18  19  20  21  22  23  24  25 0
 3-21G
 ****
 27  28  29  34  36  39  40  41  42  43  44  45  46 0
 3-21G
 ****


