%nproc=1
%NoSave
%Mem=1900MB
#P OB98/GEN NMR

erre ene a

0 1
  C     -161.106     -60.594      77.870
  O     -161.106     -60.081      79.189
  H     -161.905     -61.336      77.785
  H     -160.147     -61.078      77.652
  H     -161.294     -59.789      77.155
  P     -159.977     -58.992      79.536
  C     -158.644     -60.981      80.534
  O     -158.625     -59.852      79.668
  C     -157.982     -62.180      79.862
  O     -158.314     -62.214      78.460
  C     -156.460     -62.190      79.945
  O     -156.030     -62.719      81.185
  C     -156.110     -63.119      78.787
  O     -156.259     -64.490      79.211
  C     -157.187     -62.774      77.738
  N     -154.274     -62.060      73.571
  C     -154.316     -63.062      74.471
  N     -155.075     -63.163      75.582
  C     -155.859     -62.080      75.728
  C     -155.920     -60.971      74.888
  C     -155.081     -60.989      73.760
  N     -155.039     -59.957      72.844
  N     -156.840     -60.051      75.355
  C     -157.364     -60.623      76.418
  N     -156.781     -61.836      76.706
  O     -160.292     -58.074      80.673
  O     -159.797     -58.279      78.114
  H     -155.581     -64.647      79.896
  H     -159.816     -58.934      77.397
  H     -153.649     -63.896      74.273
  H     -158.179     -60.217      77.005
  H     -157.542     -63.675      77.219
  H     -155.082     -62.996      78.449
  H     -156.037     -61.192      79.745
  H     -158.398     -63.095      80.318
  H     -159.679     -61.231      80.808
  H     -154.276     -59.965      72.185
  H     -155.543     -59.108      73.062
  H     -158.103     -60.708      81.450
  P     -155.103     -61.865      82.175
  C     -153.353     -63.754      82.130
  O     -153.606     -62.374      81.885
  O     -155.530     -61.891      83.604
  O     -155.109     -60.393      81.553
  H     -154.795     -59.744      82.217
  H     -152.331     -63.975      81.903
  H     -153.992     -64.349      81.512
  H     -153.546     -63.975      83.159

 6  7  8  9  10  11  12  13  14  15  25  28  32  33  34  35 0
 6-311+G(2d,p)
 ****
 36  39  40 0
 6-311+G(2d,p)
 ****
 1  2  3  4  5  16  17  18  19  20  21  22  23  24 0
 3-21G
 ****
 26  27  29  30  31  37  38  41  42  43  44  45  46  47 0
 3-21G
 ****
 48 0
 3-21G
 ****


