%nproc=1
%NoSave
%Mem=1900MB
#P OB98/GEN NMR

erre ene a

0 1
  C     -909.726     914.470     299.204
  O     -910.992     915.101     299.164
  H     -909.050     915.004     298.537
  H     -909.818     913.433     298.871
  H     -909.324     914.504     300.223
  P     -912.135     914.468     300.102
  C     -913.303     916.755     300.592
  O     -913.388     915.469     300.004
  C     -914.090     917.785     299.770
  O     -913.305     918.144     298.604
  C     -915.444     917.260     299.248
  O     -916.334     918.379     299.130
  C     -915.062     916.754     297.883
  O     -916.218     916.520     297.095
  C     -914.123     917.865     297.438
  N     -913.899     917.556     292.348
  C     -914.860     918.006     293.170
  N     -914.843     918.078     294.518
  C     -913.673     917.618     295.006
  C     -912.601     917.128     294.287
  C     -912.733     917.102     292.887
  N     -911.769     916.623     292.028
  N     -911.573     916.737     295.133
  C     -912.028     917.003     296.348
  N     -913.284     917.525     296.315
  O     -911.579     914.711     301.581
  O     -912.452     913.033     299.847
  H     -916.811     917.294     297.088
  H     -911.110     913.917     301.893
  H     -915.761     918.377     292.686
  H     -911.483     916.832     297.270
  H     -914.674     918.783     297.192
  H     -914.534     915.792     297.947
  H     -915.893     916.494     299.915
  H     -914.214     918.692     300.377
  H     -912.240     917.046     300.639
  H     -913.697     916.717     301.615
  H     -911.943     916.621     291.040
  H     -910.900     916.269     292.426
  P     -917.918     918.161     299.394
  C     -917.950     917.473     301.929
  O     -918.215     918.467     300.936
  O     -918.044     916.567     299.348
  O     -918.826     918.808     298.413
  H     -918.939     916.319     299.055
  H     -918.209     917.855     302.894
  H     -916.910     917.221     301.912
  H     -918.532     916.599     301.723

 6  7  8  9  10  11  12  13  14  15  25  28  32  33  34  35 0
 6-311+G(2d,p)
 ****
 36  37  40 0
 6-311+G(2d,p)
 ****
 1  2  3  4  5  16  17  18  19  20  21  22  23  24 0
 3-21G
 ****
 26  27  29  30  31  38  39 41  42  43  44  45  46  47  48 0
 3-21G
 ****


