%nproc=1
%NoSave
%Mem=1900MB
#P OB98/GEN NMR

erre ene a

0 1
  C      -93.715     -37.337    -119.550
  O      -94.239     -38.382    -120.365
  P      -93.324     -38.914    -121.570
  C      -93.319     -41.477    -121.005
  O      -93.737     -40.433    -121.866
  C      -93.904     -42.828    -121.446
  O      -95.342     -42.794    -121.241
  C      -93.715     -43.172    -122.920
  O      -93.911     -44.580    -123.091
  C      -94.863     -42.421    -123.562
  O      -95.143     -42.910    -124.871
  C      -95.995     -42.593    -122.524
  N      -96.912     -41.437    -122.451
  C      -97.912     -41.324    -123.414
  O      -98.079     -42.130    -124.331
  N      -98.712     -40.217    -123.326
  C      -98.641     -39.253    -122.365
  O      -99.328     -38.237    -122.383
  C      -97.663     -39.492    -121.295
  C      -96.853     -40.548    -121.391
  O      -91.868     -39.022    -120.911
  O      -93.334     -38.027    -122.770
  H      -95.879     -42.355    -125.222
  H      -91.303     -38.290    -121.226
  H      -99.397     -40.087    -124.058
  H      -97.625     -38.784    -120.478
  H      -96.110     -40.729    -120.617
  H      -96.602     -43.480    -122.746
  H      -94.601     -41.364    -123.658
  H      -92.749     -42.877    -123.334
  H      -93.500     -43.621    -120.808
  H      -93.612     -41.250    -119.976
  H      -92.221     -41.538    -121.008
  P      -92.674     -45.453    -123.617
  C      -92.881     -46.961    -121.547
  O      -92.840     -46.906    -122.959
  O      -91.327     -44.829    -123.477
  O      -93.050     -45.719    -125.155
  H      -92.251     -45.978    -125.646
  H      -93.485     -47.823    -121.246
  H      -93.323     -46.054    -121.123
  H      -91.867     -47.085    -121.159
  H      -94.427     -37.084    -118.792
  H      -93.518     -36.477    -120.155
  H      -92.806     -37.665    -119.090

 3  4  5  6  7  8  9  10  11  12  13  23  28  29  30  31  32 0
 6-311+G(2d,p)
 ****
 33  34 0
 6-311+G(2d,p)
 ****
 1  2  14  15  16  17  18  19  20  21  22  24  25  26  27 0
 3-21G
 ****
 35  36  37  38  39  40  41  42  43  44  45 0
 3-21G
 ****


