%nproc=1
%NoSave
%Mem=1900MB
#P OB98/GEN NMR

erre ene a

0 1
  C      130.181     372.946    -659.561
  O      131.398     372.230    -659.563
  H      130.339     373.905    -660.060
  H      129.844     373.131    -658.538
  H      129.413     372.391    -660.111
  P      131.458     370.807    -658.828
  C      133.369     371.805    -657.412
  O      132.916     370.685    -658.166
  C      134.647     371.437    -656.635
  O      134.336     370.300    -655.788
  C      135.808     371.038    -657.567
  O      137.005     371.769    -657.306
  C      135.863     369.517    -657.435
  O      137.127     368.946    -657.693
  C      135.324     369.275    -656.013
  N      134.754     367.947    -655.818
  C      135.614     366.856    -655.944
  O      136.820     366.926    -656.183
  N      135.033     365.626    -655.769
  C      133.720     365.386    -655.492
  O      133.258     364.256    -655.347
  C      132.856     366.573    -655.400
  C      133.400     367.785    -655.560
  O      131.048     369.632    -659.654
  O      130.497     370.990    -657.553
  H      137.065     367.991    -657.499
  H      129.638     370.557    -657.726
  H      135.645     364.827    -655.850
  H      131.806     366.418    -655.193
  H      132.801     368.681    -655.494
  H      136.125     369.407    -655.280
  H      135.154     369.081    -658.160
  H      135.575     371.299    -658.607
  H      134.915     372.272    -655.979
  H      132.570     372.090    -656.718
  H      133.576     372.645    -658.080
  P      137.477     373.059    -658.118
  C      139.420     371.709    -659.254
  O      139.005     372.870    -658.530
  O      137.093     374.372    -657.514
  O      136.684     372.924    -659.525
  H      136.491     373.839    -659.830
  H      140.473     371.761    -659.438
  H      138.897     371.664    -660.186
  H      139.201     370.833    -658.680

 6  7  8  9  10  11  12  13  14  15  16  26  31  32  33  34  35 0
 6-311+G(2d,p)
 ****
 36  37 0
 6-311+G(2d,p)
 ****
 1  2  3  4  5  17  18  19  20  21  22  23  24  25 0
 3-21G
 ****
 27  28  29  30  38  39  40  41  42  43  44  45 0
 3-21G
 ****


