%nproc=1
%NoSave
%Mem=1900MB
#P OB98/GEN NMR

erre ene a

0 1
  C     1484.594    -404.383     240.742
  O     1485.023    -405.750     240.503
  P     1486.552    -405.936     239.996
  C     1487.243    -407.632     241.890
  O     1487.415    -406.318     241.288
  C     1488.377    -408.551     241.435
  O     1489.622    -408.009     241.809
  C     1488.294    -409.935     242.034
  O     1487.296    -410.736     241.379
  C     1489.729    -410.428     241.809
  O     1489.871    -411.049     240.527
  C     1490.559    -409.109     241.913
  N     1491.329    -409.038     243.135
  C     1492.725    -408.854     242.966
  O     1493.175    -408.744     241.844
  N     1493.509    -408.773     244.094
  C     1492.999    -408.933     245.282
  N     1493.835    -408.844     246.347
  C     1491.548    -409.171     245.485
  C     1490.788    -409.219     244.390
  O     1487.018    -404.454     239.678
  O     1486.693    -406.857     238.833
  H     1489.364    -411.887     240.567
  H     1487.704    -404.460     238.965
  H     1491.159    -409.266     246.489
  H     1489.704    -409.378     244.460
  H     1491.234    -409.052     241.076
  H     1490.004    -411.195     242.558
  H     1488.075    -409.861     243.112
  H     1488.335    -408.602     240.324
  H     1494.797    -408.711     246.148
  H     1486.259    -408.014     241.558
  H     1493.498    -408.926     247.289
  H     1487.224    -407.528     242.964
  P     1486.316    -411.562     242.301
  C     1484.584    -409.682     242.284
  O     1485.422    -410.463     243.079
  O     1487.278    -412.086     243.468
  O     1485.549    -412.691     241.647
  H     1486.788    -412.723     244.042
  H     1483.920    -409.068     242.935
  H     1483.966    -410.278     241.650
  H     1485.177    -408.980     241.669
  H     1483.576    -404.381     241.071
  H     1484.678    -403.819     239.836
  H     1485.213    -403.942     241.495

 3  4  5  6  7  8  9  10  11  12  13  21  23  27  28  29  30  32 0
 6-311+G(2d,p)
 ****
 34  35 0
 6-311+G(2d,p)
 ****
 1  2  14  15  16  17  18  19  20  22  24  25  26 0
 3-21G
 ****
 31  33  36  37  38  39  40  41  42  43  44  45  46 0
 3-21G
 ****


