%nproc=1
%NoSave
%Mem=1900MB
#P OB98/GEN NMR

erre ene a

0 1
  C      820.738    -381.691    -895.040
  O      821.706    -381.701    -896.120
  P      823.125    -382.396    -895.840
  C      822.977    -383.750    -898.050
  O      823.161    -383.776    -896.640
  C      823.879    -384.786    -898.730
  O      825.284    -384.392    -898.640
  C      823.791    -386.188    -898.150
  O      822.692    -386.910    -898.670
  C      825.100    -386.803    -898.630
  O      824.957    -387.221    -900.000
  C      826.060    -385.616    -898.520
  N      829.720    -387.931    -895.870
  C      829.208    -388.209    -897.130
  N      829.756    -389.264    -897.770
  N      828.251    -387.540    -897.700
  C      827.809    -386.501    -896.950
  C      828.217    -386.117    -895.680
  C      829.274    -386.901    -895.060
  O      829.753    -386.707    -893.930
  N      827.531    -385.030    -895.240
  C      826.715    -384.740    -896.230
  N      826.819    -385.606    -897.270
  O      822.993    -382.870    -894.310
  O      824.292    -381.489    -896.030
  H      824.449    -388.052    -899.980
  H      823.872    -382.898    -893.890
  H      830.436    -388.494    -895.470
  H      826.006    -383.894    -896.210
  H      826.801    -385.599    -899.350
  H      825.363    -387.686    -898.040
  H      830.540    -389.810    -897.420
  H      823.777    -386.137    -897.040
  H      829.427    -389.471    -898.720
  H      823.600    -384.803    -899.800
  H      823.180    -382.757    -898.450
  H      821.919    -383.940    -898.280
  P      821.702    -387.634    -897.640
  C      819.824    -385.835    -897.610
  O      820.877    -386.472    -896.910
  O      822.695    -388.187    -896.510
  O      820.882    -388.741    -898.230
  H      822.349    -389.025    -896.130
  H      819.277    -385.193    -896.900
  H      819.118    -386.585    -898.020
  H      820.235    -385.221    -898.420
  H      819.845    -381.199    -895.366
  H      821.146    -381.169    -894.200
  H      820.508    -382.697    -894.758

 3  4  5  6  7  8  9  10  11  12  23  26  30  31 0
 6-311+G(2d,p)
 ****
 33  35  36  37  38 0
 6-311+G(2d,p)
 ****
 1  2  13  14  15  16  17  18  19  20  21  22  24  25 0
 3-21G
 ****
 27  28  29  32  34  39  40  41  42  43  44  45  46  47  48  49 0
 3-21G
 ****


