%nproc=1
%NoSave
%Mem=1900MB
#P OB98/GEN NMR

erre ene a

0 1
  C      -28.028     251.448     215.139
  O      -28.436     251.156     213.811
  P      -27.438     250.294     212.895
  C      -28.561     247.983     213.475
  O      -27.418     248.824     213.537
  C      -28.257     246.745     212.626
  O      -27.831     247.149     211.306
  C      -27.139     245.867     213.166
  O      -27.572     245.065     214.255
  C      -26.751     245.080     211.914
  O      -27.670     243.998     211.699
  C      -26.915     246.146     210.811
  N      -25.647     246.743     210.393
  C      -24.912     246.029     209.451
  O      -25.283     244.959     208.980
  N      -23.714     246.591     209.082
  C      -23.171     247.730     209.597
  O      -22.073     248.163     209.262
  C      -23.978     248.421     210.613
  C      -25.159     247.905     210.959
  O      -26.032     250.936     213.306
  O      -27.767     250.362     211.442
  H      -26.054     251.307     214.206
  H      -27.447     243.617     210.828
  H      -23.177     246.103     208.383
  H      -23.574     249.326     211.049
  H      -25.764     248.396     211.709
  H      -27.396     245.708     209.930
  H      -25.746     244.650     211.979
  H      -26.292     246.489     213.484
  H      -29.183     246.166     212.518
  H      -29.391     248.539     213.027
  H      -28.843     247.689     214.492
  P      -26.441     244.589     215.290
  C      -26.195     246.837     216.602
  O      -25.630     245.903     215.706
  O      -25.441     243.798     214.320
  O      -26.974     243.773     216.426
  H      -25.298     244.256     213.475
  H      -25.395     247.444     217.030
  H      -26.731     246.335     217.416
  H      -26.884     247.492     216.061
  H      -28.786     252.024     215.627
  H      -27.115     252.006     215.117
  H      -27.875     250.534     215.674

 3  4  5  6  7  8  9  10  11  12  13  24  28  29  30  31  32 0
 6-311+G(2d,p)
 ****
 33  34 0
 6-311+G(2d,p)
 ****
 1  2  14  15  16  17  18  19  20  21  22  23  25  26  27 0
 3-21G
 ****
 35  36  37  38  39  40  41  42  43  44  45 0
 3-21G
 ****


