%nproc=1
%NoSave
%Mem=1900MB
#P OB98/GEN NMR

erre ene a

0 1
  C     -184.153    -378.476     301.682
  O     -183.597    -379.623     302.315
  P     -182.953    -379.420     303.774
  C     -183.857    -381.590     304.880
  O     -182.731    -380.903     304.347
  C     -183.814    -383.065     304.506
  O     -184.190    -383.225     303.120
  C     -182.444    -383.712     304.630
  O     -182.153    -384.083     305.973
  C     -182.616    -384.942     303.750
  O     -183.288    -385.984     304.492
  C     -183.524    -384.414     302.622
  N     -181.704    -386.165     298.230
  C     -182.414    -386.820     299.220
  N     -182.696    -388.120     298.991
  N     -182.800    -386.251     300.332
  C     -182.482    -384.939     300.405
  C     -181.783    -384.176     299.490
  C     -181.319    -384.830     298.287
  O     -180.630    -384.316     297.404
  N     -181.676    -382.877     299.905
  C     -182.329    -382.840     301.050
  N     -182.812    -384.072     301.407
  O     -184.181    -378.869     304.643
  O     -181.781    -378.508     303.828
  H     -183.284    -386.782     303.927
  H     -183.846    -378.351     305.399
  H     -181.445    -386.644     297.383
  H     -182.475    -381.949     301.646
  H     -184.309    -385.142     302.375
  H     -181.663    -385.357     303.405
  H     -182.543    -388.574     298.106
  H     -181.664    -383.070     304.216
  H     -183.249    -388.609     299.691
  H     -184.554    -383.599     305.119
  H     -184.772    -381.143     304.473
  H     -183.863    -381.470     305.969
  P     -180.601    -384.164     306.378
  C     -180.814    -383.543     308.895
  O     -180.594    -384.559     307.929
  O     -180.141    -382.635     306.368
  O     -179.772    -385.011     305.472
  H     -179.180    -382.573     306.192
  H     -181.548    -382.815     308.539
  H     -179.873    -383.041     309.118
  H     -181.198    -384.004     309.807
  H     -184.544    -378.751     300.725
  H     -183.392    -377.734     301.557
  H     -184.941    -378.081     302.289

 3  4  5  6  7  8  9  10  11  12  23  26  30  31  33  0
 6-311+G(2d,p)
 ****
 35  36  37  38 0
 6-311+G(2d,p)
 ****
 1  2  13  14  15  16  17  18  19  20  21  22  24  25  27  28  29 0
 3-21G
 ****
 32  34  39  40  41  42  43  44  45  46  47  48  49 0
 3-21G
 ****


