%nproc=1
%NoSave
%Mem=1900MB
#P OB98/GEN NMR

erre ene a

0 1
  C      -84.013     158.819     -26.625
  O      -85.305     159.397     -26.529
  P      -86.571     158.434     -26.705
  C      -87.891     159.805     -28.482
  O      -87.809     159.348     -27.141
  C      -89.255     159.434     -29.074
  O      -89.384     157.999     -29.175
  C      -90.435     159.889     -28.227
  O      -90.699     161.274     -28.412
  C      -91.545     158.982     -28.729
  O      -92.134     159.509     -29.930
  C      -90.781     157.674     -29.022
  N      -90.994     156.661     -27.998
  C      -92.113     155.853     -28.168
  O      -92.902     155.986     -29.105
  N      -92.324     154.906     -27.197
  C      -91.570     154.732     -26.070
  O      -91.842     153.901     -25.208
  C      -90.414     155.632     -25.930
  C      -90.190     156.548     -26.880
  O      -86.929     157.996     -25.204
  O      -86.333     157.250     -27.583
  H      -92.793     158.855     -30.230
  H      -87.248     157.073     -25.194
  H      -93.114     154.294     -27.315
  H      -89.798     155.527     -25.047
  H      -89.353     157.230     -26.787
  H      -91.102     157.260     -29.988
  H      -92.351     158.878     -27.998
  H      -90.240     159.671     -27.166
  H      -89.320     159.856     -30.085
  H      -87.094     159.343     -29.073
  H      -87.748     160.890     -28.501
  P      -90.845     162.173     -27.091
  C      -93.282     162.854     -27.745
  O      -91.962     163.263     -27.446
  O      -89.453     162.970     -27.117
  O      -91.072     161.365     -25.856
  H      -89.152     163.142     -28.024
  H      -93.577     161.981     -27.154
  H      -93.347     162.608     -28.809
  H      -93.961     163.680     -27.528
  H      -83.272     159.578     -26.487
  H      -83.892     158.373     -27.590
  H      -83.901     158.070     -25.870

 3  4  5  6  7  8  9  10  11  12  13  23  28  29  30  31  32 0
 6-311+G(2d,p)
 ****
 33  34 0
 6-311+G(2d,p)
 ****
 1  2  14  15  16  17  18  19  20  21  22  24  25  26 0
 3-21G
 ****
 27  35  36  37  38  39  40  41  42  43  44  45 0
 3-21G
 ****


