%nproc=1
%NoSave
%Mem=1900MB
#P OB98/GEN NMR

erre ene a

0 1
  C      263.495      39.667     -63.666
  O      263.585      39.829     -65.066
  H      263.496      40.655     -63.198
  H      264.349      39.100     -63.286
  H      262.561      39.159     -63.401
  P      263.716      38.520     -65.978
  C      261.398      39.003     -67.016
  O      262.224      38.062     -66.345
  C      260.392      38.288     -67.930
  O      261.057      37.941     -69.180
  C      259.829      36.986     -67.336
  O      258.506      36.813     -67.860
  C      260.775      35.956     -67.921
  O      260.268      34.653     -67.783
  C      260.945      36.511     -69.339
  N      262.092      35.942     -70.029
  C      262.221      36.259     -71.383
  O      261.382      36.975     -71.936
  N      263.274      35.736     -72.087
  C      264.092      34.913     -71.506
  N      265.106      34.418     -72.262
  C      263.958      34.504     -70.091
  C      262.947      35.055     -69.416
  O      264.588      37.436     -65.438
  O      264.276      39.076     -67.373
  H      259.372      34.580     -68.182
  H      265.223      38.856     -67.459
  H      264.652      33.801     -69.659
  H      262.765      34.815     -68.374
  H      260.046      36.317     -69.941
  H      261.737      35.975     -67.394
  H      259.804      36.993     -66.246
  H      259.587      38.988     -68.185
  H      265.154      34.717     -73.230
  H      262.051      39.649     -67.612
  H      265.788      33.755     -71.924
  H      260.858      39.619     -66.290
  P      257.188      36.929     -66.957
  C      256.239      38.896     -68.332
  O      256.614      38.422     -67.041
  O      257.366      36.423     -65.560
  O      256.080      36.061     -67.721
  H      255.466      35.680     -67.068
  H      255.874      39.899     -68.252
  H      255.471      38.268     -68.733
  H      257.090      38.877     -68.980

 6  7  8  9  10  11  12  13  14  15  16  26  30  31  32  33  35 0
 6-311+G(2d,p)
 ****
 37  38 0
 6-311+G(2d,p)
 ****
 1  2  3  4  5  17  18  19  20  21  22  23  24  25 0
 3-21G
 ****
 27  28  29  34  36  39  40  41  42  43  44  45  46 0
 3-21G
 ****


