%nproc=1
%NoSave
%Mem=1900MB
#P OB98/GEN NMR

erre ene a

0 1
  C       74.776    -132.530     284.887
  O       75.621    -133.607     284.550
  H       73.786    -132.929     285.129
  H       74.671    -131.847     284.040
  H       75.161    -131.994     285.757
  P       77.134    -133.307     284.105
  C       79.267    -132.647     285.371
  O       77.969    -133.217     285.479
  C       80.284    -133.433     286.199
  O       79.855    -133.469     287.588
  C       80.468    -134.886     285.736
  O       81.862    -135.194     285.652
  C       79.834    -135.700     286.852
  O       80.343    -137.029     286.933
  C       80.115    -134.802     288.060
  N       79.293    -135.156     289.210
  C       79.652    -136.328     289.887
  O       80.616    -136.992     289.509
  N       78.879    -136.745     290.939
  C       77.813    -136.080     291.258
  N       77.074    -136.566     292.291
  C       77.383    -134.856     290.552
  C       78.164    -134.451     289.552
  O       77.296    -132.143     283.189
  O       77.654    -134.683     283.470
  H       81.295    -136.983     287.169
  H       78.412    -134.490     282.871
  H       76.481    -134.340     290.854
  H       77.928    -133.565     288.975
  H       81.172    -134.860     288.354
  H       78.749    -135.765     286.682
  H       80.000    -135.093     284.773
  H       81.237    -132.890     286.187
  H       77.403    -137.412     292.742
  H       79.221    -131.606     285.709
  H       76.214    -136.148     292.612
  H       79.569    -132.671     284.319
  P       82.560    -134.936     284.230
  C       83.025    -132.842     282.769
  O       82.791    -133.355     284.070
  O       81.395    -135.264     283.182
  O       83.764    -135.784     283.995
  H       81.603    -136.089     282.703
  H       83.159    -131.782     282.822
  H       82.187    -133.064     282.142
  H       83.905    -133.293     282.361

 6  7  8  9  10  11  12  13  14  15  16  26  30  31  32  33  35 0
 6-311+G(2d,p)
 ****
 37  38 0
 6-311+G(2d,p)
 ****
 1  2  3  4  5  17  18  19  20  21  22  23  24  25 0
 3-21G
 ****
 27  28  29  34  36  39  40  41  42  43  44  45  46 0
 3-21G
 ****


