%nproc=1
%NoSave
%Mem=1900MB
#P OB98/GEN NMR

erre ene a

0 1
  C      283.456     391.107     375.756
  O      284.774     391.112     375.249
  H      282.762     391.209     374.923
  H      283.303     391.943     376.445
  H      283.245     390.161     376.270
  P      285.996     391.037     376.287
  C      286.658     388.680     375.460
  O      287.078     390.029     375.661
  C      287.401     388.065     374.268
  O      286.906     388.694     373.061
  C      288.922     388.299     374.344
  O      289.683     387.100     374.219
  C      289.157     389.396     373.304
  O      290.453     389.410     372.749
  C      288.027     389.161     372.291
  N      287.669     390.351     371.521
  C      288.064     390.387     370.194
  O      288.672     389.493     369.601
  N      287.732     391.533     369.504
  C      287.050     392.601     370.013
  O      286.776     393.599     369.350
  C      286.681     392.510     371.434
  C      287.002     391.403     372.114
  O      285.629     390.750     377.703
  O      286.711     392.462     376.142
  H      290.534     388.631     372.159
  H      286.465     393.033     376.895
  H      288.001     391.571     368.534
  H      286.160     393.347     371.871
  H      286.743     391.301     373.162
  H      288.313     388.375     371.584
  H      289.002     390.370     373.793
  H      289.212     388.676     375.332
  H      287.161     387.000     374.215
  H      285.576     388.688     375.267
  H      286.851     388.093     376.363
  P      291.258     386.990     374.447
  C      291.047     385.096     376.251
  O      291.588     385.530     375.001
  O      291.883     388.148     375.148
  O      291.841     386.963     372.943
  H      292.717     387.413     372.971
  H      291.376     384.098     376.455
  H      289.978     385.117     376.204
  H      291.382     385.748     377.030

 6  7  8  9  10  11  12  13  14  15  16  26  31  32  33  34  35 0
 6-311+G(2d,p)
 ****
 36  37 0
 6-311+G(2d,p)
 ****
 1  2  3  4  5  17  18  19  20  21  22  23  24  25 0
 3-21G
 ****
 27  28  29  30  38  39  40  41  42  43  44  45 0
 3-21G
 ****


