%nproc=1
%NoSave
%Mem=1900MB
#P OB98/GEN NMR

erre ene a

0 1
  C       57.329     355.698     168.172
  O       56.954     356.657     169.138
  H       56.481     355.033     167.990
  H       58.167     355.103     168.542
  H       57.604     356.184     167.231
  P       57.994     357.842     169.448
  C       56.779     359.644     168.026
  O       57.176     359.217     169.322
  C       55.931     360.917     168.117
  O       54.674     360.592     168.765
  C       56.599     362.038     168.916
  O       56.294     363.291     168.279
  C       55.908     361.982     170.266
  O       55.940     363.230     170.956
  C       54.510     361.495     169.880
  N       53.836     360.849     171.007
  C       52.722     361.509     171.532
  O       52.354     362.587     171.058
  N       52.084     360.970     172.624
  C       52.568     359.905     173.190
  N       51.909     359.435     174.282
  C       53.784     359.214     172.704
  C       54.352     359.728     171.615
  O       58.935     357.855     168.155
  O       58.768     357.696     170.715
  H       55.522     363.909     170.387
  H       59.846     358.130     168.381
  H       54.163     358.346     173.224
  H       55.252     359.294     171.194
  H       53.887     362.335     169.536
  H       56.408     361.235     170.899
  H       57.683     361.926     168.996
  H       55.692     361.244     167.096
  H       51.092     359.948     174.594
  H       56.181     358.851     167.557
  H       52.225     358.644     174.827
  H       57.669     359.822     167.412
  P       57.529     364.282     168.020
  C       57.869     363.311     165.629
  O       57.689     364.473     166.432
  O       58.805     363.400     168.426
  O       57.461     365.549     168.810
  H       59.182     363.726     169.262
  H       57.960     363.598     164.602
  H       57.026     362.663     165.745
  H       58.757     362.799     165.936

 6  7  8  9  10  11  12  13  14  15  16  26  30  31  32  33  35 0
 6-311+G(2d,p)
 ****
 37  38 0
 6-311+G(2d,p)
 ****
 1  2  3  4  5  17  18  19  20  21  22  23  24  25 0
 3-21G
 ****
 27  28  29  34  36  39  40  41  42  43  44  45  46 0
 3-21G
 ****


