%nproc=1
%NoSave
%Mem=1900MB
#P OB98/GEN NMR

erre ene a

0 1
  C       35.195     270.801    -285.459
  O       34.584     271.521    -286.511
  H       34.928     269.741    -285.521
  H       36.280     270.893    -285.552
  H       34.889     271.208    -284.491
  P       32.980     271.521    -286.553
  C       32.422     273.570    -285.055
  O       32.507     272.155    -285.155
  C       30.995     273.977    -284.699
  O       30.087     273.564    -285.745
  C       30.467     273.343    -283.416
  O       30.911     274.028    -282.258
  C       28.971     273.518    -283.617
  O       28.598     274.881    -283.345
  C       28.819     273.213    -285.118
  N       25.083     269.749    -285.573
  C       25.063     271.062    -285.260
  N       26.105     271.913    -285.152
  C       27.260     271.284    -285.413
  C       27.440     269.954    -285.740
  C       26.279     269.166    -285.826
  N       26.297     267.820    -286.132
  N       28.782     269.664    -285.899
  C       29.397     270.811    -285.703
  N       28.520     271.821    -285.398
  O       32.600     269.973    -286.395
  O       32.363     272.141    -287.761
  H       27.706     275.007    -283.726
  H       31.695     269.817    -286.726
  H       24.077     271.482    -285.065
  H       30.468     270.966    -285.774
  H       28.039     273.820    -285.593
  H       28.375     272.882    -282.962
  H       30.701     272.277    -283.368
  H       30.961     275.073    -284.638
  H       32.698     274.018    -286.017
  H       25.439     267.314    -285.986
  H       27.190     267.350    -286.170
  H       33.121     273.920    -284.287
  P       30.753     273.275    -280.848
  C       32.086     271.054    -281.089
  O       30.822     271.709    -281.181
  O       29.217     273.513    -280.482
  O       31.676     273.758    -279.778
  H       29.080     273.481    -279.518
  H       31.971     270.020    -281.339
  H       32.460     271.140    -280.090
  H       32.775     271.511    -281.769

 6  7  8  9  10  11  12  13  14  15  25  28  32  33  34  35 0
 6-311+G(2d,p)
 ****
 36  39  40 0
 6-311+G(2d,p)
 ****
 1  2  3  4  5  16  17  18  19  20  21  22  23  24 0
 3-21G
 ****
 26  27  29  30  31  37  38  41  42  43  44  45  46  47 0
 3-21G
 ****
 48 0
 3-21G
 ****


