%nproc=1
%NoSave
%Mem=1900MB
#P OB98/GEN NMR

erre ene a

0 1
  C      288.812    -157.477      56.276
  O      289.070    -156.091      56.385
  H      289.512    -158.030      56.905
  H      287.795    -157.673      56.627
  H      288.898    -157.809      55.238
  P      290.383    -155.530      55.653
  C      291.290    -153.773      57.334
  O      290.557    -154.008      56.141
  C      291.089    -152.334      57.808
  O      291.821    -151.445      56.918
  C      289.623    -151.874      57.830
  O      289.420    -151.051      58.982
  C      289.512    -151.013      56.585
  O      288.473    -150.045      56.673
  C      290.910    -150.409      56.512
  N      289.520    -147.053      52.954
  C      289.262    -147.124      54.277
  N      289.720    -148.027      55.167
  C      290.574    -148.882      54.583
  C      290.941    -148.930      53.248
  C      290.357    -147.967      52.407
  N      290.560    -147.928      51.048
  N      291.798    -149.991      53.024
  C      291.925    -150.584      54.191
  N      291.204    -149.951      55.165
  O      289.892    -155.384      54.135
  O      291.599    -156.386      55.769
  H      288.622    -149.360      55.991
  H      290.031    -156.226      53.665
  H      288.593    -146.361      54.672
  H      292.496    -151.483      54.383
  H      291.035    -149.553      57.187
  H      289.312    -151.651      55.714
  H      288.900    -152.699      57.831
  H      291.538    -152.231      58.804
  H      292.355    -153.935      57.136
  H      290.016    -147.269      50.511
  H      291.090    -148.665      50.612
  H      290.965    -154.478      58.105
  P      288.879    -151.765      60.313
  C      287.102    -150.119      61.272
  O      288.429    -150.631      61.351
  O      290.206    -152.365      60.973
  O      287.860    -152.829      60.058
  H      290.006    -153.195      61.444
  H      286.961    -149.375      62.028
  H      286.403    -150.915      61.421
  H      286.945    -149.682      60.308

 6  7  8  9  10  11  12  13  14  15  25  28  32  33  34  35 0
 6-311+G(2d,p)
 ****
 36  39  40 0
 6-311+G(2d,p)
 ****
 1  2  3  4  5  16  17  18  19  20  21  22  23  24 0
 3-21G
 ****
 26  27  29  30  31  37  38  41  42  43  44  45  46  47 0
 3-21G
 ****
 48 0
 3-21G
 ****


