%nproc=1
%NoSave
%Mem=1900MB
#P OB98/GEN NMR

erre ene a

0 1
  C       38.818    -892.660    -355.836
  O       37.500    -893.130    -356.031
  H       38.808    -891.560    -355.912
  H       39.494    -893.050    -356.601
  H       39.171    -892.930    -354.843
  P       37.256    -894.710    -356.128
  C       35.980    -894.800    -353.887
  O       37.134    -895.240    -354.615
  C       36.227    -894.910    -352.379
  O       36.782    -896.240    -352.108
  C       37.212    -893.870    -351.810
  O       36.749    -893.470    -350.531
  C       38.504    -894.650    -351.723
  O       39.393    -894.080    -350.780
  C       38.023    -896.060    -351.404
  N       39.020    -897.060    -351.759
  C       40.005    -897.330    -350.822
  O       40.026    -896.750    -349.738
  N       41.017    -898.220    -351.151
  C       41.056    -898.740    -352.339
  N       42.088    -899.550    -352.611
  C       40.034    -898.460    -353.374
  C       39.054    -897.640    -353.029
  O       38.226    -895.470    -356.976
  O       35.765    -894.830    -356.698
  H       39.914    -893.370    -351.204
  H       35.781    -894.880    -357.673
  H       40.105    -898.910    -354.355
  H       38.240    -897.340    -353.725
  H       37.820    -896.160    -350.329
  H       39.018    -894.640    -352.717
  H       37.313    -892.980    -352.489
  H       35.262    -894.860    -351.873
  H       42.792    -899.710    -351.882
  H       35.143    -895.420    -354.186
  H       42.247    -900.000    -353.535
  H       35.768    -893.750    -354.142
  P       36.344    -891.950    -350.238
  C       33.794    -892.260    -350.188
  O       34.892    -891.670    -350.894
  O       37.388    -890.940    -350.563
  O       36.038    -891.950    -348.651
  H       36.235    -891.060    -348.295
  H       32.879    -892.024    -350.690
  H       33.763    -891.874    -349.190
  H       33.920    -893.322    -350.156

 6  7  8  9  10  11  12  13  14  15  16  26  30  31  32  33  35 0
 6-311+G(2d,p)
 ****
 37  38 0
 6-311+G(2d,p)
 ****
 1  2  3  4  5  17  18  19  20  21  22  23  24  25 0
 3-21G
 ****
 27  28  29  34  36  39  40  41  42  43  44  45  46 0
 3-21G
 ****


