%nproc=1
%NoSave
%Mem=1900MB
#P OB98/GEN NMR

erre ene a

0 1
  C       -7.164     531.018     -99.189
  O       -8.550     531.295     -99.103
  H       -6.850     531.122    -100.229
  H       -6.964     529.993     -98.862
  H       -6.597     531.725     -98.574
  P       -9.210     531.171     -97.647
  C      -10.914     529.264     -98.091
  O      -10.715     530.654     -97.883
  C      -12.390     528.968     -98.325
  O      -13.186     529.407     -97.199
  C      -12.987     529.635     -99.562
  O      -12.713     528.885    -100.729
  C      -14.467     529.653     -99.207
  O      -15.086     528.375     -99.470
  C      -14.437     529.946     -97.702
  N      -17.649     533.700     -96.656
  C      -17.887     532.363     -96.883
  N      -19.188     531.977     -96.892
  N      -16.947     531.481     -97.104
  C      -15.703     532.020     -97.102
  C      -15.337     533.326     -96.870
  C      -16.386     534.283     -96.605
  O      -16.235     535.469     -96.327
  N      -13.975     533.479     -96.941
  C      -13.524     532.274     -97.243
  N      -14.537     531.355     -97.377
  O       -9.414     532.695     -97.195
  O       -8.419     530.400     -96.643
  H      -16.034     528.427     -99.261
  H       -9.339     532.751     -96.224
  H      -18.413     534.328     -96.479
  H      -12.482     532.017     -97.382
  H      -15.248     529.438     -97.165
  H      -15.014     530.388     -99.795
  H      -19.931     532.636     -97.064
  H      -12.623     530.665     -99.658
  H      -19.374     531.000     -97.080
  H      -12.507     527.876     -98.392
  H      -10.573     528.716     -97.209
  H      -10.328     528.945     -98.960
  P      -12.000     529.649    -101.957
  C      -13.635     528.454    -103.589
  O      -12.282     528.767    -103.265
  O      -10.441     529.409    -101.682
  O      -12.333     531.101    -102.067
  H       -9.908     530.044    -102.199
  H      -13.661     527.864    -104.482
  H      -14.183     529.360    -103.744
  H      -14.076     527.903    -102.785

 6  7  8  9  10  11  12  13  14  15  26  29  33  34 0
 6-311+G(2d,p)
 ****
 36  38  39  40  41 0
 6-311+G(2d,p)
 ****
 1  2  3  4  5  16  17  18  19  20  21  22  23  24  25 0
 3-21G
 ****
 27  28  30  31  32  35  37  42  43  44  45  46  47 0
 3-21G
 ****
 48  49 0
 3-21G
 ****


