%nproc=1
%NoSave
%Mem=1900MB
#P OB98/GEN NMR

erre ene a

0 1
  C     -251.873    -637.804    -327.197
  O     -253.215    -637.791    -327.651
  H     -251.706    -638.713    -326.616
  H     -251.689    -636.938    -326.552
  H     -251.183    -637.794    -328.047
  P     -253.625    -636.620    -328.670
  C     -256.197    -636.807    -328.167
  O     -255.020    -636.011    -328.154
  C     -257.221    -636.250    -327.173
  O     -256.897    -636.625    -325.822
  C     -257.254    -634.721    -327.126
  O     -257.834    -634.154    -328.282
  C     -258.070    -634.511    -325.857
  O     -259.470    -634.693    -326.098
  C     -257.525    -635.645    -324.951
  N     -256.591    -635.150    -323.941
  C     -257.169    -634.493    -322.846
  O     -258.396    -634.363    -322.772
  N     -256.341    -633.967    -321.882
  C     -255.050    -634.110    -321.982
  N     -254.290    -633.560    -321.002
  C     -254.407    -634.810    -323.102
  C     -255.229    -635.301    -324.040
  O     -254.057    -637.437    -329.980
  O     -252.572    -635.583    -328.900
  H     -259.939    -634.284    -325.344
  H     -254.729    -638.117    -329.813
  H     -253.329    -634.914    -323.145
  H     -254.826    -635.835    -324.898
  H     -258.346    -636.156    -324.428
  H     -257.943    -633.505    -325.454
  H     -256.249    -634.326    -326.949
  H     -258.206    -636.664    -327.423
  H     -254.776    -633.060    -320.258
  H     -255.965    -637.849    -327.926
  H     -253.284    -633.573    -320.987
  H     -256.608    -636.783    -329.185
  P     -256.976    -633.192    -329.237
  C     -259.074    -632.953    -330.714
  O     -258.045    -632.273    -330.014
  O     -255.991    -633.878    -330.115
  O     -256.317    -632.151    -328.206
  H     -256.960    -631.631    -327.683
  H     -259.716    -632.239    -331.186
  H     -259.642    -633.545    -330.027
  H     -258.640    -633.588    -331.457

 6  7  8  9  10  11  12  13  14  15  16  26  30  31  32  33  35 0
 6-311+G(2d,p)
 ****
 37  38 0
 6-311+G(2d,p)
 ****
 1  2  3  4  5  17  18  19  20  21  22  23  24  25 0
 3-21G
 ****
 27  28  29  34  36  39  40  41  42  43  44  45  46 0
 3-21G
 ****


