%nproc=1
%NoSave
%Mem=1900MB
#P OB98/GEN NMR

erre ene a

0 1
  C     -143.136     -44.459      97.418
  O     -144.132     -43.985      98.326
  P     -144.355     -44.752      99.714
  C     -146.726     -45.488      99.019
  O     -145.930     -44.852     100.007
  C     -148.216     -45.432      99.391
  O     -148.452     -46.218     100.590
  C     -148.714     -44.005      99.657
  O     -149.897     -43.679      98.928
  C     -148.829     -43.945     101.170
  O     -149.740     -42.953     101.619
  C     -149.152     -45.397     101.542
  N     -148.776     -45.706     102.924
  C     -149.355     -44.928     103.917
  O     -150.089     -43.969     103.679
  N     -149.015     -45.245     105.205
  C     -148.110     -46.193     105.581
  O     -147.804     -46.408     106.746
  C     -147.479     -46.942     104.483
  C     -147.836     -46.668     103.227
  O     -143.529     -44.273     100.860
  O     -143.980     -46.271      99.346
  H     -149.695     -42.913     102.599
  H     -143.505     -46.656     100.107
  H     -149.442     -44.701     105.938
  H     -146.740     -47.686     104.742
  H     -147.379     -47.195     102.400
  H     -150.224     -45.597     101.445
  H     -147.845     -43.689     101.581
  H     -147.984     -43.259      99.322
  H     -148.774     -45.884      98.565
  H     -146.424     -46.531      98.925
  H     -146.534     -45.026      98.045
  P     -149.911     -42.990      97.485
  C     -151.381     -40.911      97.963
  O     -151.277     -42.171      97.332
  O     -149.581     -43.883      96.336
  O     -148.804     -41.839      97.624
  H     -148.287     -41.791      96.798
  H     -152.439     -40.666      98.080
  H     -150.911     -40.149      97.334
  H     -150.908     -40.918      98.947
  H     -143.121     -43.836      96.548
  H     -143.364     -45.465      97.132
  H     -142.178     -44.432      97.893

 3  4  5  6  7  8  9  10  11  12  13  23  28  29  30  31  32 0
 6-311+G(2d,p)
 ****
 33  34 0
 6-311+G(2d,p)
 ****
 1  2  14  15  16  17  18  19  20  21  22  24  25  26  27 0
 3-21G
 ****
 35  36  37  38  39  40  41  42  43  44  45 0
 3-21G
 ****


