%nproc=1
%NoSave
%Mem=1900MB
#P OB98/GEN NMR

erre ene a

0 1
  C      413.487     948.314     624.985
  O      412.582     947.485     624.262
  P      411.325     946.891     625.064
  C      410.068     949.100     624.533
  O      410.463     948.167     625.531
  C      408.716     949.700     624.864
  O      407.681     948.714     624.651
  C      408.554     950.155     626.310
  O      409.130     951.431     626.536
  C      407.035     950.202     626.439
  O      406.547     951.444     625.903
  C      406.591     949.019     625.559
  N      402.964     945.648     626.619
  C      402.936     946.749     625.779
  N      401.790     946.955     625.108
  N      403.949     947.563     625.615
  C      405.042     947.198     626.325
  C      405.193     946.144     627.190
  C      404.054     945.276     627.402
  O      404.004     944.327     628.187
  N      406.460     946.100     627.714
  C      407.090     947.104     627.140
  N      406.259     947.818     626.306
  O      411.965     946.367     626.421
  O      410.574     945.818     624.348
  H      405.578     951.447     626.012
  H      411.421     945.652     626.807
  H      402.168     945.039     626.696
  H      408.132     947.347     627.297
  H      405.723     949.297     624.938
  H      406.694     950.147     627.477
  H      401.023     946.299     625.096
  H      408.955     949.400     626.995
  H      401.754     947.728     624.452
  H      408.525     950.539     624.182
  H      410.002     948.598     623.557
  H      410.830     949.901     624.463
  P      409.600     951.745     628.044
  C      412.155     951.604     627.560
  O      411.028     951.021     628.199
  O      408.618     950.853     628.935
  O      409.543     953.180     628.418
  H      408.515     951.240     629.826
  H      412.108     952.695     627.568
  H      412.201     951.239     626.514
  H      413.055     951.280     628.077
  H      414.272     948.638     624.334
  H      413.905     947.760     625.799
  H      412.964     949.166     625.365

 3  4  5  6  7  8  9  10  11  12  23  26  30  31  33  0
 6-311+G(2d,p)
 ****
 35  36  37  38 0
 6-311+G(2d,p)
 ****
 1  2  13  14  15  16  17  18  19  20  21  22  24  25  27  28  29 0
 3-21G
 ****
 32  34  39  40  41  42  43  44  45  46  47  48  49 0
 3-21G
 ****


