%nproc=1
%NoSave
%Mem=1900MB
#P OB98/GEN NMR

erre ene a

0 1
  C       -7.265      36.121       8.053
  O       -8.167      35.420       8.891
  P       -9.603      35.018       8.303
  C      -10.290      33.296       6.441
  O       -9.329      34.203       6.949
  C      -10.445      33.478       4.928
  O      -11.095      34.752       4.671
  C       -9.123      33.472       4.149
  O       -9.378      32.846       2.885
  C       -8.836      34.952       3.963
  O       -7.957      35.207       2.879
  C      -10.255      35.495       3.767
  N      -10.369      36.931       4.023
  C      -10.957      37.722       3.041
  O      -11.365      37.289       1.966
  N      -11.037      39.061       3.327
  C      -10.541      39.679       4.437
  O      -10.625      40.885       4.632
  C       -9.887      38.799       5.416
  C       -9.842      37.489       5.173
  O      -10.142      36.437       7.802
  O      -10.480      34.321       9.286
  H       -9.439      37.005       7.445
  H       -7.739      36.157       2.884
  H      -11.494      39.648       2.645
  H       -9.467      39.255       6.304
  H       -9.365      36.821       5.879
  H      -10.604      35.275       2.751
  H       -8.377      35.351       4.875
  H       -8.328      32.937       4.676
  H      -11.112      32.692       4.554
  H      -11.253      33.481       6.922
  H       -9.983      32.273       6.682
  P       -8.148      32.135       2.129
  C       -6.485      30.212       2.747
  O       -7.456      31.140       3.174
  O       -7.112      33.359       2.062
  O       -8.475      31.578       0.783
  H       -7.007      33.811       2.913
  H       -5.909      29.881       3.616
  H       -5.797      30.657       2.023
  H       -6.977      29.344       2.300
  H       -6.358      36.314       8.587
  H       -7.706      37.048       7.751
  H       -7.050      35.530       7.187

 3  4  5  6  7  8  9  10  11  12  13  24  28  29  30  31  32 0
 6-311+G(2d,p)
 ****
 33  34 0
 6-311+G(2d,p)
 ****
 1  2  14  15  16  17  18  19  20  21  22  23  25  26  27 0
 3-21G
 ****
 35  36  37  38  39  40  41  42  43  44  45 0
 3-21G
 ****


