%nproc=1
%NoSave
%Mem=1900MB
#P OB98/GEN NMR

erre ene a

0 1
  C     -608.876     -46.995    -175.183
  O     -610.138     -47.312    -174.624
  P     -611.395     -47.390    -175.618
  C     -612.710     -49.101    -174.170
  O     -612.669     -47.778    -174.723
  C     -613.659     -49.160    -172.979
  O     -613.102     -48.382    -171.885
  C     -615.067     -48.621    -173.262
  O     -616.042     -49.512    -172.672
  C     -615.120     -47.315    -172.484
  O     -616.442     -46.947    -172.127
  C     -614.207     -47.660    -171.300
  N     -615.051     -44.858    -167.179
  C     -615.557     -46.104    -167.517
  N     -616.456     -46.646    -166.667
  N     -615.215     -46.744    -168.598
  C     -614.289     -46.102    -169.343
  C     -613.704     -44.878    -169.101
  C     -614.138     -44.146    -167.932
  O     -613.799     -43.004    -167.626
  N     -612.774     -44.565    -170.072
  C     -612.802     -45.587    -170.907
  N     -613.734     -46.529    -170.530
  O     -611.103     -48.737    -176.454
  O     -611.576     -46.224    -176.531
  H     -616.387     -46.103    -171.644
  H     -611.101     -48.532    -177.419
  H     -615.365     -44.395    -166.336
  H     -612.203     -45.697    -171.797
  H     -614.723     -48.341    -170.610
  H     -614.689     -46.518    -173.099
  H     -616.750     -46.209    -165.798
  H     -615.294     -48.480    -174.328
  H     -616.828     -47.562    -166.882
  H     -613.708     -50.205    -172.627
  H     -611.703     -49.382    -173.852
  H     -613.035     -49.792    -174.957
  P     -617.485     -49.545    -173.383
  C     -617.872     -52.041    -172.761
  O     -618.309     -50.699    -172.647
  O     -617.161     -50.160    -174.841
  O     -618.160     -48.203    -173.472
  H     -617.849     -49.888    -175.480
  H     -616.880     -52.119    -173.255
  H     -618.591     -52.602    -173.365
  H     -617.816     -52.486    -171.770
  H     -608.137     -46.978    -174.409
  H     -608.924     -46.034    -175.651
  H     -608.613     -47.733    -175.911

 3  4  5  6  7  8  9  10  11  12  23  26  30  31  33  0
 6-311+G(2d,p)
 ****
 35  36  37  38 0
 6-311+G(2d,p)
 ****
 1  2  13  14  15  16  17  18  19  20  21  22  24  25  27  28  29 0
 3-21G
 ****
 32  34  39  40  41  42  43  44  45  46  47  48  49 0
 3-21G
 ****


