%nproc=1
%NoSave
%Mem=1900MB
#P OB98/GEN NMR

erre ene a

0 1
  C     -276.435     722.446    -487.200
  O     -277.613     721.645    -487.337
  P     -278.365     721.253    -485.974
  C     -279.614     723.540    -485.958
  O     -279.719     722.121    -485.888
  C     -280.887     724.146    -486.535
  O     -281.189     723.639    -487.853
  C     -282.136     723.865    -485.689
  O     -282.186     724.766    -484.591
  C     -283.253     724.119    -486.700
  O     -283.573     725.518    -486.812
  C     -282.632     723.615    -488.021
  N     -286.479     720.841    -489.805
  C     -286.458     722.147    -489.376
  N     -287.625     722.823    -489.464
  N     -285.394     722.744    -488.921
  C     -284.300     721.954    -488.894
  C     -284.186     720.646    -489.320
  C     -285.374     719.997    -489.836
  O     -285.440     718.842    -490.259
  N     -282.896     720.188    -489.197
  C     -282.269     721.159    -488.594
  N     -283.043     722.287    -488.428
  O     -277.434     721.878    -484.836
  O     -278.537     719.778    -485.799
  H     -283.837     725.852    -485.942
  H     -276.990     721.166    -484.345
  H     -287.336     720.429    -490.156
  H     -281.234     721.136    -488.250
  H     -282.867     724.291    -488.865
  H     -284.169     723.602    -486.416
  H     -288.484     722.441    -489.805
  H     -282.145     722.838    -485.365
  H     -287.634     723.799    -489.146
  H     -280.732     725.228    -486.619
  H     -278.755     723.819    -486.564
  H     -279.425     723.914    -484.944
  P     -282.575     724.175    -483.156
  C     -281.249     726.143    -482.092
  O     -282.424     725.356    -482.086
  O     -281.341     723.198    -482.823
  O     -283.867     723.437    -483.119
  H     -281.672     722.348    -482.461
  H     -281.470     727.158    -481.732
  H     -280.800     726.218    -483.105
  H     -280.502     725.692    -481.416
  H     -276.023     722.643    -488.168
  H     -275.715     721.923    -486.605
  H     -276.686     723.371    -486.725

 3  4  5  6  7  8  9  10  11  12  23  26  30  31 0
 6-311+G(2d,p)
 ****
 33  35  36  37  38 0
 6-311+G(2d,p)
 ****
 1  2  13  14  15  16  17  18  19  20  21  22  24  25 0
 3-21G
 ****
 27  28  29  32  34  39  40  41  42  43  44  45  46  47  48  49 0
 3-21G
 ****


