%nproc=1
%NoSave
%Mem=1900MB
#P OB98/GEN NMR

erre ene a

0 1
  C     -757.032    1729.847    -166.226
  O     -755.890    1730.597    -165.860
  H     -757.909    1730.491    -166.147
  H     -757.163    1728.998    -165.564
  H     -756.937    1729.507    -167.271
  P     -754.476    1729.850    -165.704
  C     -753.650    1731.173    -167.732
  O     -753.827    1729.886    -167.179
  C     -752.236    1731.402    -168.245
  O     -751.308    1731.356    -167.123
  C     -751.775    1730.343    -169.274
  O     -751.142    1730.991    -170.370
  C     -750.744    1729.505    -168.506
  O     -749.823    1728.858    -169.370
  C     -750.170    1730.581    -167.560
  N     -749.467    1730.003    -166.403
  C     -748.168    1729.500    -166.662
  O     -747.698    1729.547    -167.813
  N     -747.471    1728.943    -165.637
  C     -748.015    1728.813    -164.472
  N     -747.276    1728.231    -163.492
  C     -749.394    1729.275    -164.165
  C     -750.049    1729.857    -165.181
  O     -754.559    1728.483    -165.082
  O     -753.565    1730.875    -164.879
  H     -749.170    1728.369    -168.807
  H     -752.809    1730.393    -164.467
  H     -749.804    1729.147    -163.186
  H     -751.054    1730.217    -165.047
  H     -749.474    1731.230    -168.095
  H     -751.271    1728.734    -167.909
  H     -752.594    1729.720    -169.642
  H     -752.152    1732.400    -168.670
  H     -746.327    1727.947    -163.736
  H     -753.900    1731.929    -166.966
  H     -747.590    1728.107    -162.548
  H     -754.355    1731.289    -168.585
  P     -751.994    1731.024    -171.744
  C     -752.918    1733.414    -171.326
  O     -753.230    1732.036    -171.543
  O     -752.693    1729.579    -171.770
  O     -751.158    1731.259    -172.975
  H     -752.209    1728.992    -172.373
  H     -753.824    1733.971    -171.209
  H     -752.373    1733.793    -172.165
  H     -752.324    1733.510    -170.441

 6  7  8  9  10  11  12  13  14  15  16  26  30  31  32  33  35 0
 6-311+G(2d,p)
 ****
 37  38 0
 6-311+G(2d,p)
 ****
 1  2  3  4  5  17  18  19  20  21  22  23  24  25 0
 3-21G
 ****
 27  28  29  34  36  39  40  41  42  43  44  45  46 0
 3-21G
 ****


