%nproc=1
%NoSave
%Mem=1900MB
#P OB98/GEN NMR

erre ene a

0 1
  C      115.552     257.758    -383.209
  O      114.657     258.107    -384.272
  P      114.708     259.585    -384.894
  C      115.771     259.388    -387.244
  O      115.973     259.704    -385.870
  C      115.422     260.663    -388.029
  O      116.476     261.654    -387.918
  C      115.278     260.414    -389.520
  O      114.157     259.663    -389.932
  C      115.430     261.812    -390.099
  O      114.199     262.538    -390.045
  C      116.468     262.432    -389.136
  N      117.808     262.508    -389.725
  C      118.140     263.709    -390.345
  O      117.358     264.652    -390.446
  N      119.396     263.775    -390.880
  C      120.322     262.771    -390.887
  O      121.425     262.880    -391.402
  C      119.906     261.520    -390.240
  C      118.690     261.443    -389.701
  O      114.544     260.702    -383.916
  O      113.478     259.570    -385.928
  H      113.812     262.386    -389.166
  H      113.023     260.431    -385.863
  H      119.655     264.644    -391.327
  H      120.612     260.698    -390.235
  H      118.361     260.524    -389.218
  H      116.171     263.450    -388.855
  H      115.740     261.782    -391.149
  H      116.155     259.838    -389.855
  H      114.517     261.095    -387.602
  H      114.971     258.655    -387.341
  H      116.678     258.918    -387.637
  P      114.193     258.071    -390.163
  C      113.592     257.399    -387.730
  O      114.549     257.373    -388.764
  O      114.901     257.568    -391.381
  O      112.630     257.734    -390.298
  H      112.529     256.989    -390.924
  H      114.006     256.895    -386.851
  H      112.679     256.883    -388.032
  H      113.357     258.433    -387.456
  H      115.382     256.742    -382.918
  H      115.380     258.402    -382.372
  H      116.563     257.869    -383.543

 3  4  5  6  7  8  9  10  11  12  13  23  28  29  30  31  32 0
 6-311+G(2d,p)
 ****
 33  34 0
 6-311+G(2d,p)
 ****
 1  2  14  15  16  17  18  19  20  21  22  24  25  26  27 0
 3-21G
 ****
 35  36  37  38  39  40  41  42  43  44  45 0
 3-21G
 ****


