%nproc=1
%NoSave
%Mem=1900MB
#P OB98/GEN NMR

erre ene a

0 1
  C     -745.267     -32.614    -897.190
  O     -744.272     -33.549    -897.610
  P     -743.004     -32.958    -898.390
  C     -740.977     -33.381    -896.830
  O     -741.935     -32.450    -897.310
  C     -741.136     -33.560    -895.320
  O     -742.458     -34.025    -894.970
  C     -740.177     -34.592    -894.730
  O     -738.865     -34.072    -894.630
  C     -740.850     -34.863    -893.390
  O     -740.543     -33.824    -892.440
  C     -742.340     -34.806    -893.760
  N     -744.755     -38.709    -891.490
  C     -744.286     -37.542    -891.010
  N     -743.649     -36.550    -891.680
  C     -743.529     -36.858    -892.980
  C     -743.959     -38.011    -893.620
  C     -744.603     -38.970    -892.810
  N     -745.068     -40.172    -893.300
  N     -743.659     -37.974    -894.960
  C     -743.031     -36.826    -895.130
  N     -742.938     -36.114    -893.960
  O     -743.568     -31.602    -899.040
  O     -742.462     -33.877    -899.440
  H     -740.764     -32.973    -892.870
  H     -743.665     -31.703    -900.000
  H     -744.438     -37.368    -889.950
  H     -742.627     -36.469    -896.070
  H     -742.943     -34.302    -892.990
  H     -740.538     -35.815    -892.930
  H     -740.182     -35.503    -895.340
  H     -740.970     -32.586    -894.830
  H     -739.967     -33.038    -897.060
  H     -745.439     -40.837    -892.640
  H     -744.883     -40.412    -894.260
  H     -741.116     -34.329    -897.350
  P     -737.774     -34.615    -895.680
  C     -736.283     -32.564    -896.080
  O     -737.390     -33.314    -896.540
  O     -738.683     -35.454    -896.690
  O     -736.630     -35.351    -895.060
  H     -739.486     -34.968    -896.940
  H     -736.117     -31.737    -896.770
  H     -735.390     -33.191    -896.050
  H     -736.496     -32.162    -895.080
  H     -746.054     -33.134    -896.685
  H     -745.665     -32.108    -898.045
  H     -744.827     -31.900    -896.526

 3  4  5  6  7  8  9  10  11  12  22  25  29  30  31  32 0
 6-311+G(2d,p)
 ****
 33  36  37 0
 6-311+G(2d,p)
 ****
 1  2  13  14  15  16  17  18  19  20  21  23  24  26 0
 3-21G
 ****
 27  28  34  35  38  39  40  41  42  43  44  45  46  47  48 0
 3-21G
 ****


