%nproc=1
%NoSave
%Mem=1900MB
#P OB98/GEN NMR

erre ene a

0 1
  C     -894.240    -522.350     314.381
  O     -893.190    -523.210     313.928
  P     -892.620    -524.312     314.961
  C     -894.100    -526.268     314.053
  O     -893.790    -525.404     315.146
  C     -893.820    -527.735     314.452
  O     -894.410    -527.990     315.739
  C     -894.440    -528.744     313.493
  O     -893.660    -528.903     312.324
  C     -894.490    -529.994     314.357
  O     -893.240    -530.676     314.364
  C     -894.800    -529.403     315.761
  N     -896.200    -529.584     316.169
  C     -896.510    -530.799     316.722
  O     -895.710    -531.701     316.852
  N     -897.820    -530.959     317.093
  C     -898.830    -530.052     316.895
  O     -900.000    -530.296     317.204
  C     -898.450    -528.776     316.273
  C     -897.160    -528.607     315.927
  O     -892.630    -523.552     316.371
  O     -891.290    -524.846     314.615
  H     -892.670    -530.181     314.997
  H     -891.870    -523.848     316.908
  H     -898.080    -531.837     317.516
  H     -899.210    -528.042     316.110
  H     -896.840    -527.681     315.472
  H     -894.160    -529.887     316.499
  H     -895.260    -530.710     314.018
  H     -895.480    -528.435     313.241
  H     -892.740    -527.864     314.511
  H     -893.480    -526.011     313.194
  H     -895.140    -526.132     313.755
  P     -894.420    -529.356     310.977
  C     -894.500    -526.879     310.114
  O     -895.210    -528.033     310.484
  O     -895.550    -530.317     311.603
  O     -893.520    -530.005     309.979
  H     -895.850    -530.007     312.475
  H     -893.540    -527.132     309.631
  H     -894.290    -526.281     311.023
  H     -895.110    -526.319     309.417
  H     -894.514    -521.677     313.595
  H     -893.902    -521.791     315.228
  H     -895.089    -522.939     314.658

 3  4  5  6  7  8  9  10  11  12  13  23  28  29  30  31  32 0
 6-311+G(2d,p)
 ****
 33  34 0
 6-311+G(2d,p)
 ****
 1  2  14  15  16  17  18  19  20  21  22  24  25  26 0
 3-21G
 ****
 27  35  36  37  38  39  40  41  42  43  44  45 0
 3-21G
 ****


