%nproc=1
%NoSave
%Mem=1900MB
#P OB98/GEN NMR

erre ene a

0 1
  C        2.281    -781.671    -411.244
  O        2.079    -780.537    -412.061
  H        2.568    -782.513    -411.881
  H        1.363    -781.934    -410.711
  H        3.089    -781.485    -410.531
  P        1.535    -779.191    -411.375
  C        3.821    -778.302    -410.546
  O        2.583    -778.899    -410.193
  C        4.354    -777.464    -409.387
  O        3.539    -776.293    -409.178
  C        4.371    -778.173    -408.036
  O        5.404    -779.138    -407.917
  C        4.577    -776.983    -407.116
  O        5.954    -776.561    -407.176
  C        3.649    -775.931    -407.773
  N        2.329    -775.871    -407.152
  C        2.290    -775.553    -405.786
  O        3.329    -775.337    -405.168
  N        1.074    -775.520    -405.152
  C       -0.005    -775.799    -405.811
  N       -1.182    -775.799    -405.120
  C       -0.015    -776.126    -407.250
  C        1.173    -776.146    -407.850
  O        0.095    -779.193    -410.968
  O        1.898    -778.036    -412.421
  H        6.148    -776.351    -408.107
  H        1.571    -777.183    -412.045
  H       -0.943    -776.360    -407.749
  H        1.252    -776.394    -408.905
  H        4.104    -774.934    -407.732
  H        4.349    -777.201    -406.070
  H        3.395    -778.620    -407.816
  H        5.357    -777.110    -409.667
  H       -1.134    -775.614    -404.124
  H        3.662    -777.688    -411.436
  H       -2.006    -776.267    -405.482
  H        4.559    -779.079    -410.777
  P        5.433    -780.051    -406.596
  C        3.931    -781.853    -407.726
  O        4.117    -780.967    -406.638
  O        5.123    -778.998    -405.432
  O        6.699    -780.815    -406.362
  H        5.956    -778.656    -405.038
  H        3.011    -782.385    -407.600
  H        4.743    -782.549    -407.762
  H        3.898    -781.295    -408.639

 6  7  8  9  10  11  12  13  14  15  16  26  30  31  32  33  35 0
 6-311+G(2d,p)
 ****
 37  38 0
 6-311+G(2d,p)
 ****
 1  2  3  4  5  17  18  19  20  21  22  23  24  25 0
 3-21G
 ****
 27  28  29  34  36  39  40  41  42  43  44  45  46 0
 3-21G
 ****


