%nproc=1
%NoSave
%Mem=1900MB
#P OB98/GEN NMR

erre ene a

0 1
  C     -973.234     -77.664      44.483
  O     -972.717     -76.362      44.170
  P     -973.369     -75.016      44.746
  C     -971.679     -74.431      46.606
  O     -972.198     -74.084      45.328
  C     -970.205     -74.010      46.755
  O     -969.380     -74.701      45.810
  C     -969.964     -72.515      46.537
  O     -970.330     -71.782      47.693
  C     -968.455     -72.511      46.219
  O     -967.689     -72.577      47.439
  C     -968.308     -73.811      45.410
  N     -965.639     -72.103      41.392
  C     -965.323     -72.218      42.701
  N     -966.084     -72.668      43.727
  C     -967.294     -73.066      43.259
  C     -967.767     -73.007      41.952
  C     -966.872     -72.486      40.991
  N     -967.194     -72.359      39.662
  N     -969.054     -73.460      41.867
  C     -969.360     -73.819      43.096
  N     -968.331     -73.604      43.971
  O     -974.493     -75.246      45.710
  O     -973.888     -74.222      43.454
  H     -966.745     -72.644      47.174
  H     -974.640     -73.656      43.695
  H     -964.320     -71.891      42.985
  H     -970.311     -74.245      43.417
  H     -967.368     -74.321      45.656
  H     -968.149     -71.619      45.684
  H     -970.523     -72.170      45.659
  H     -969.875     -74.312      47.764
  H     -971.756     -75.519      46.725
  H     -966.519     -71.949      39.039
  H     -968.123     -72.607      39.354
  H     -972.286     -73.950      47.373
  P     -970.607     -70.202      47.575
  C     -973.130     -70.375      47.134
  O     -972.115     -69.952      48.040
  O     -970.228     -69.574      46.273
  O     -969.758     -69.572      48.785
  H     -969.475     -68.670      48.559
  H     -973.240     -69.639      46.340
  H     -974.069     -70.469      47.688
  H     -972.873     -71.352      46.709
  H     -972.645     -78.409      43.991
  H     -974.249     -77.734      44.150
  H     -973.194     -77.819      45.541

 3  4  5  6  7  8  9  10  11  12  22  25  29  30  31  32 0
 6-311+G(2d,p)
 ****
 33  36  37 0
 6-311+G(2d,p)
 ****
 1  2  13  14  15  16  17  18  19  20  21  23  24  26 0
 3-21G
 ****
 27  28  34  35  38  39  40  41  42  43  44  45  46  47  48 0
 3-21G
 ****


