%nproc=1
%NoSave
%Mem=1900MB
#P OB98/GEN NMR

erre ene a

0 1
  C      943.410    -893.700     722.698
  O      943.761    -894.790     721.876
  H      943.033    -894.090     723.653
  H      942.617    -893.110     722.221
  H      944.284    -893.070     722.885
  P      944.316    -894.450     720.408
  C      944.463    -897.010     719.988
  O      943.965    -895.750     719.539
  C      944.273    -898.070     718.901
  O      942.883    -898.360     718.722
  C      944.827    -897.680     717.539
  O      946.214    -897.930     717.478
  C      944.041    -898.620     716.641
  O      944.659    -899.930     716.644
  C      942.666    -898.700     717.310
  N      938.867    -898.200     713.877
  C      939.823    -899.160     714.044
  N      940.841    -899.220     714.943
  C      940.796    -898.110     715.738
  C      939.913    -897.050     715.679
  C      938.910    -897.130     714.699
  N      937.948    -896.150     714.525
  N      940.190    -896.110     716.656
  C      941.221    -896.620     717.313
  N      941.648    -897.820     716.772
  O      945.731    -893.980     720.340
  O      943.217    -893.380     719.912
  H      945.607    -899.800     716.415
  H      942.328    -893.670     720.194
  H      939.767    -900.000     713.360
  H      941.663    -896.180     718.206
  H      942.262    -899.710     717.296
  H      944.009    -898.290     715.605
  H      944.573    -896.650     717.275
  H      944.760    -899.000     719.271
  H      943.931    -897.300     720.899
  H      937.397    -896.180     713.690
  H      938.043    -895.280     715.058
  H      945.530    -896.880     720.231
  P      947.128    -897.310     716.300
  C      948.990    -898.780     717.288
  O      948.328    -898.350     716.104
  O      947.521    -895.880     716.524
  O      946.243    -897.520     714.977
  H      946.574    -896.930     714.261
  H      949.768    -899.469     717.032
  H      948.287    -899.261     717.935
  H      949.413    -897.934     717.787

 6  7  8  9  10  11  12  13  14  15  25  28  32  33  34  35 0
 6-311+G(2d,p)
 ****
 36  39  40 0
 6-311+G(2d,p)
 ****
 1  2  3  4  5  16  17  18  19  20  21  22  23  24 0
 3-21G
 ****
 26  27  29  30  31  37  38  41  42  43  44  45  46  47 0
 3-21G
 ****
 48 0
 3-21G
 ****


