%nproc=1
%NoSave
%Mem=1900MB
#P OB98/GEN NMR

erre ene a

0 1
  C      210.323    -232.534    -262.218
  O      210.811    -233.772    -261.737
  H      209.460    -232.699    -262.870
  H      210.011    -231.926    -261.367
  H      211.109    -232.004    -262.764
  P      211.351    -234.806    -262.838
  C      213.909    -234.384    -262.900
  O      212.647    -234.126    -263.493
  C      215.032    -233.998    -263.858
  O      214.939    -234.775    -265.070
  C      215.014    -232.540    -264.306
  O      215.576    -231.681    -263.325
  C      215.887    -232.614    -265.547
  O      217.277    -232.648    -265.164
  C      215.474    -233.967    -266.150
  N      214.668    -232.894    -271.087
  C      215.801    -232.999    -270.360
  N      215.938    -233.308    -269.053
  C      214.739    -233.542    -268.496
  C      213.499    -233.496    -269.111
  C      213.485    -233.147    -270.472
  N      212.310    -232.977    -271.189
  N      212.493    -233.781    -268.208
  C      213.116    -233.975    -267.065
  N      214.472    -233.848    -267.189
  O      210.240    -234.708    -263.991
  O      211.529    -236.209    -262.359
  H      217.396    -231.953    -264.490
  H      209.604    -235.439    -263.886
  H      216.723    -232.801    -270.898
  H      212.628    -234.204    -266.127
  H      216.327    -234.510    -266.567
  H      215.759    -231.759    -266.218
  H      214.008    -232.219    -264.595
  H      215.986    -234.243    -263.377
  H      213.990    -235.450    -262.660
  H      212.393    -232.307    -271.948
  H      211.477    -232.920    -270.618
  H      213.986    -233.804    -261.974
  P      215.479    -230.099    -263.574
  C      214.113    -229.292    -261.532
  O      214.096    -229.618    -262.915
  O      215.203    -230.003    -265.148
  O      216.687    -229.318    -263.188
  H      215.886    -229.446    -265.568
  H      213.134    -228.989    -261.225
  H      214.803    -228.492    -261.363
  H      214.415    -230.149    -260.967

 6  7  8  9  10  11  12  13  14  15  25  28  32  33  34  35 0
 6-311+G(2d,p)
 ****
 36  39  40 0
 6-311+G(2d,p)
 ****
 1  2  3  4  5  16  17  18  19  20  21  22  23  24 0
 3-21G
 ****
 26  27  29  30  31  37  38  41  42  43  44  45  46  47  48 0
 3-21G
 ****


