%nproc=1
%NoSave
%Mem=1900MB
#P OB98/GEN NMR

erre ene a

0 1
  C      185.285    -612.738    -421.289
  O      184.600    -612.406    -422.477
  H      185.784    -611.840    -420.911
  H      186.044    -613.496    -421.498
  H      184.590    -613.103    -420.526
  P      183.631    -613.536    -423.087
  C      181.580    -611.966    -422.833
  O      182.156    -613.223    -422.524
  C      180.325    -611.741    -421.987
  O      180.695    -611.364    -420.639
  C      179.415    -610.637    -422.504
  O      178.553    -611.099    -423.537
  C      178.627    -610.311    -421.243
  O      177.618    -611.320    -421.020
  C      179.714    -610.397    -420.163
  N      179.260    -605.839    -417.995
  C      178.347    -606.872    -418.089
  N      177.137    -606.658    -417.531
  N      178.594    -608.014    -418.679
  C      179.844    -608.086    -419.197
  C      180.837    -607.129    -419.169
  C      180.551    -605.875    -418.505
  O      181.331    -604.938    -418.377
  N      181.974    -607.566    -419.799
  C      181.660    -608.779    -420.221
  N      180.377    -609.138    -419.889
  O      184.054    -614.858    -422.290
  O      183.730    -613.736    -424.561
  H      176.956    -611.214    -421.726
  H      183.992    -615.624    -422.890
  H      179.013    -604.978    -417.541
  H      182.332    -609.429    -420.766
  H      179.321    -610.771    -419.208
  H      178.107    -609.354    -421.303
  H      176.862    -605.787    -417.107
  H      179.983    -609.750    -422.814
  H      176.460    -607.411    -417.553
  H      179.784    -612.690    -421.925
  H      181.304    -611.950    -423.896
  H      182.310    -611.180    -422.641
  P      178.574    -610.302    -424.934
  C      178.484    -612.316    -426.568
  O      179.274    -611.288    -425.985
  O      179.691    -609.175    -424.690
  O      177.270    -609.718    -425.348
  H      179.543    -608.422    -425.296
  H      179.085    -612.888    -427.244
  H      177.666    -611.878    -427.101
  H      178.106    -612.955    -425.798

 6  7  8  9  10  11  12  13  14  15  26  29  33  34 0
 6-311+G(2d,p)
 ****
 36  38  39  40  41 0
 6-311+G(2d,p)
 ****
 1  2  3  4  5  16  17  18  19  20  21  22  23  24  25 0
 3-21G
 ****
 27  28  30  31  32  35  37  42  43  44  45  46  47 0
 3-21G
 ****
 48  49 0
 3-21G
 ****


