%nproc=1
%NoSave
%Mem=1900MB
#P OB98/GEN NMR

erre ene a

0 1
  C     -118.754    -244.167     670.967
  O     -118.457    -245.528     671.203
  P     -116.970    -246.084     671.381
  C     -116.379    -245.932     673.909
  O     -116.296    -245.317     672.626
  C     -115.020    -246.030     674.620
  O     -114.231    -247.064     673.995
  C     -114.241    -244.724     674.445
  O     -114.485    -243.626     675.311
  C     -112.779    -245.146     674.341
  O     -112.077    -245.014     675.580
  C     -112.864    -246.617     673.926
  N     -108.928    -248.242     671.176
  C     -109.162    -248.396     672.529
  N     -108.133    -248.875     673.260
  N     -110.299    -248.086     673.106
  C     -111.197    -247.529     672.259
  C     -111.083    -247.342     670.895
  C     -109.841    -247.725     670.271
  O     -109.557    -247.531     669.086
  N     -112.165    -246.681     670.379
  C     -112.920    -246.431     671.428
  N     -112.359    -246.890     672.596
  O     -116.166    -246.270     670.135
  O     -117.252    -247.548     671.999
  H     -112.001    -244.066     675.780
  H     -116.557    -248.147     671.657
  H     -108.006    -248.430     670.803
  H     -113.865    -245.896     671.403
  H     -112.295    -247.248     674.616
  H     -112.247    -244.515     673.614
  H     -107.204    -248.982     672.880
  H     -114.492    -244.336     673.453
  H     -108.213    -248.835     674.269
  H     -115.140    -246.335     675.661
  H     -116.817    -246.928     673.769
  H     -117.072    -245.363     674.537
  P     -114.217    -242.085     674.986
  C     -116.629    -241.392     674.488
  O     -115.331    -241.587     673.953
  O     -112.881    -242.093     674.097
  O     -114.036    -241.214     676.186
  H     -112.451    -241.221     674.147
  H     -117.347    -241.352     673.669
  H     -116.660    -240.441     675.034
  H     -116.896    -242.208     675.167
  H     -119.813    -244.042     670.884
  H     -118.285    -243.852     670.058
  H     -118.388    -243.576     671.780

 3  4  5  6  7  8  9  10  11  12  23  26  30  31 0
 6-311+G(2d,p)
 ****
 33  35  36  37  38 0
 6-311+G(2d,p)
 ****
 1  2  13  14  15  16  17  18  19  20  21  22  24  25 0
 3-21G
 ****
 27  28  29  32  34  39  40  41  42  43  44  45  46  47  48  49 0
 3-21G
 ****


