%nproc=1
%NoSave
%Mem=1900MB
#P OB98/GEN NMR

erre ene a

0 1
  C     -144.635      -6.803     -71.632
  O     -144.009      -6.459     -72.872
  P     -142.468      -6.014     -72.814
  C     -141.090      -8.194     -73.072
  O     -141.610      -7.035     -73.710
  C     -140.835      -9.325     -74.082
  O     -142.046      -9.627     -74.835
  C     -139.743      -8.998     -75.106
  O     -139.063     -10.221     -75.429
  C     -140.534      -8.548     -76.322
  O     -139.756      -8.625     -77.514
  C     -141.724      -9.506     -76.241
  N     -143.169      -6.917     -80.400
  C     -141.953      -7.243     -79.917
  N     -141.651      -7.920     -78.782
  C     -142.773      -8.305     -78.152
  C     -144.085      -8.035     -78.519
  C     -144.268      -7.301     -79.708
  N     -145.511      -6.948     -80.189
  N     -144.967      -8.558     -77.588
  C     -144.198      -9.122     -76.674
  N     -142.870      -9.021     -76.988
  O     -142.042      -6.378     -71.314
  O     -142.247      -4.561     -73.109
  H     -139.712      -9.569     -77.789
  H     -141.936      -5.559     -70.792
  H     -141.105      -6.912     -80.512
  H     -144.547      -9.606     -75.774
  H     -141.485     -10.503     -76.627
  H     -140.858      -7.509     -76.191
  H     -139.017      -8.246     -74.779
  H     -140.559     -10.229     -73.523
  H     -141.788      -8.548     -72.306
  H     -145.553      -6.394     -81.028
  H     -146.335      -7.189     -79.652
  H     -140.170      -7.923     -72.536
  P     -138.265     -10.933     -74.233
  C     -140.014     -12.845     -73.979
  O     -138.674     -12.483     -74.283
  O     -138.994     -10.388     -72.913
  O     -136.798     -10.646     -74.222
  H     -138.381     -10.416     -72.154
  H     -140.332     -13.632     -74.669
  H     -140.699     -11.992     -74.080
  H     -140.058     -13.225     -72.961
  H     -145.653      -7.079     -71.811
  H     -144.604      -5.962     -70.971
  H     -144.116      -7.626     -71.186

 3  4  5  6  7  8  9  10  11  12  22  25  29  30  31  32 0
 6-311+G(2d,p)
 ****
 33  36  37 0
 6-311+G(2d,p)
 ****
 1  2  13  14  15  16  17  18  19  20  21  23  24  26 0
 3-21G
 ****
 27  28  34  35  38  39  40  41  42  43  44  45  46  47  48 0
 3-21G
 ****


