%nproc=1
%NoSave
%Mem=1900MB
#P OB98/GEN NMR

erre ene a

0 1
  C     -188.210    -101.294     834.667
  O     -187.137    -100.627     835.303
  H     -188.413    -100.795     833.717
  H     -189.112    -101.255     835.291
  H     -187.945    -102.340     834.471
  P     -186.716    -101.089     836.779
  C     -184.545    -100.677     838.134
  O     -185.512    -100.132     837.235
  C     -183.207     -99.934     838.016
  O     -182.723    -100.069     836.628
  C     -183.303     -98.429     838.313
  O     -182.027     -98.015     838.849
  C     -183.515     -97.848     836.920
  O     -183.305     -96.463     836.904
  C     -182.550     -98.727     836.114
  N     -182.818     -98.667     834.672
  C     -182.285     -97.571     833.994
  O     -181.643     -96.715     834.612
  N     -182.515     -97.448     832.648
  C     -183.262     -98.316     832.045
  N     -183.466     -98.135     830.714
  C     -183.909     -99.467     832.746
  C     -183.645     -99.582     834.044
  O     -186.457    -102.550     836.954
  O     -187.929    -100.605     837.705
  H     -183.253     -96.119     835.981
  H     -188.486    -101.367     837.956
  H     -184.542    -100.147     832.192
  H     -184.059    -100.380     834.632
  H     -181.514     -98.430     836.290
  H     -184.553     -98.017     836.586
  H     -184.102     -98.180     839.014
  H     -182.468    -100.420     838.651
  H     -183.015     -97.345     830.278
  H     -184.422    -101.732     837.871
  H     -184.057     -98.741     830.129
  H     -184.908    -100.615     839.158
  P     -181.562     -98.362     840.338
  C     -179.495     -99.456     841.457
  O     -179.988     -98.711     840.336
  O     -182.405     -99.395     841.023
  O     -181.622     -96.960     841.126
  H     -181.818     -97.138     842.060
  H     -178.445     -99.623     841.340
  H     -180.002    -100.397     841.511
  H     -179.670     -98.904     842.357

 6  7  8  9  10  11  12  13  14  15  16  26  30  31  32  33  35 0
 6-311+G(2d,p)
 ****
 37  38 0
 6-311+G(2d,p)
 ****
 1  2  3  4  5  17  18  19  20  21  22  23  24  25 0
 3-21G
 ****
 27  28  29  34  36  39  40  41  42  43  44  45  46 0
 3-21G
 ****


