%nproc=1
%NoSave
%Mem=1900MB
#P OB98/GEN NMR

erre ene a

0 1
  C       10.788    -119.293     197.357
  O       12.019    -119.257     196.665
  P       13.155    -118.174     196.955
  C       12.901    -115.779     197.934
  O       12.474    -116.715     196.951
  C       11.840    -114.714     198.251
  O       10.676    -115.349     198.821
  C       12.367    -113.742     199.314
  O       13.184    -112.653     198.937
  C       11.147    -113.371     200.148
  O       10.575    -112.122     199.759
  C       10.166    -114.517     199.872
  N        8.470    -114.659     204.651
  C        8.324    -113.662     203.702
  N        7.826    -112.488     204.153
  N        8.654    -113.803     202.447
  C        9.228    -115.000     202.169
  C        9.415    -116.067     203.019
  C        9.007    -115.912     204.398
  O        9.201    -116.740     205.286
  N       10.095    -117.091     202.410
  C       10.354    -116.632     201.205
  N        9.884    -115.349     201.024
  O       14.457    -118.356     196.242
  O       13.430    -118.416     198.528
  H       11.256    -111.431     199.872
  H       14.380    -118.252     198.690
  H        8.272    -114.465     205.626
  H       10.908    -117.164     200.438
  H        9.201    -114.123     199.521
  H       11.415    -113.273     201.206
  H        7.699    -112.298     205.136
  H       13.001    -114.329     199.990
  H        7.863    -111.690     203.530
  H       11.492    -114.223     197.338
  H       13.820    -115.311     197.566
  H       13.161    -116.311     198.857
  P       14.250    -111.902     199.866
  C       13.819    -110.730     202.098
  O       13.476    -110.792     200.725
  O       15.114    -111.022     198.842
  O       15.141    -112.803     200.658
  H       15.980    -110.809     199.240
  H       13.043    -110.174     202.633
  H       14.772    -110.206     202.215
  H       13.899    -111.733     202.529
  H       10.195    -120.104     196.988
  H       10.266    -118.371     197.205
  H       10.970    -119.431     198.402

 3  4  5  6  7  8  9  10  11  12  23  26  30  31 0
 6-311+G(2d,p)
 ****
 33  35  36  37  38 0
 6-311+G(2d,p)
 ****
 1  2  13  14  15  16  17  18  19  20  21  22  24  25 0
 3-21G
 ****
 27  28  29  32  34  39  40  41  42  43  44  45  46  47  48  49 0
 3-21G
 ****


