%nproc=1
%NoSave
%Mem=1900MB
#P OB98/GEN NMR

erre ene a

0 1
  C      413.736      67.970     419.769
  O      415.114      68.006     420.070
  H      413.311      68.960     419.952
  H      413.230      67.248     420.416
  H      413.572      67.707     418.720
  P      416.018      66.731     419.716
  C      416.997      66.008     417.440
  O      416.787      67.074     418.352
  C      418.132      66.346     416.461
  O      417.678      67.415     415.575
  C      419.424      66.842     417.141
  O      420.517      66.449     416.299
  C      419.208      68.345     417.102
  O      420.371      69.069     417.421
  C      418.645      68.482     415.679
  N      418.031      69.766     415.371
  C      418.872      70.827     415.048
  O      420.099      70.753     415.005
  N      418.251      72.018     414.775
  C      416.906      72.243     414.776
  O      416.407      73.325     414.490
  C      416.069      71.087     415.130
  C      416.655      69.919     415.401
  O      415.318      65.414     419.733
  O      417.192      66.788     420.808
  H      417.014      66.136     421.512
  H      421.153      68.587     417.073
  H      418.848      72.797     414.533
  H      414.996      71.231     415.151
  H      416.065      69.045     415.659
  H      419.431      68.276     414.947
  H      418.462      68.637     417.846
  H      419.569      66.432     418.144
  H      418.326      65.471     415.832
  H      416.068      65.847     416.881
  H      417.241      65.099     417.997
  P      421.127      64.967     416.278
  C      420.094      62.773     415.359
  O      420.391      64.143     415.105
  O      421.097      64.278     417.601
  O      422.627      65.130     415.748
  H      423.177      64.398     416.081
  H      419.610      62.349     414.504
  H      419.447      62.700     416.208
  H      421.002      62.242     415.555

 6  7  8  9  10  11  12  13  14  15  16  27  31  32  33  34  35 0
 6-311+G(2d,p)
 ****
 36  37 0
 6-311+G(2d,p)
 ****
 1  2  3  4  5  17  18  19  20  21  22  23  24  25 0
 3-21G
 ****
 26  28  29  30  38  39  40  41  42  43  44  45 0
 3-21G
 ****


