%nproc=1
%NoSave
%Mem=1900MB
#P OB98/GEN NMR

erre ene a

0 1
  C      -65.085    -189.655     232.250
  O      -64.286    -190.580     231.520
  P      -63.446    -191.775     232.160
  C      -61.173    -191.025     231.069
  O      -62.154    -192.035     231.252
  C      -60.210    -191.391     229.928
  O      -59.418    -192.546     230.336
  C      -60.946    -191.780     228.639
  O      -60.351    -191.246     227.460
  C      -61.037    -193.292     228.746
  O      -61.273    -193.935     227.503
  C      -59.723    -193.643     229.444
  N      -59.860    -198.738     229.179
  C      -59.966    -197.806     228.166
  N      -60.149    -198.287     226.917
  N      -59.915    -196.517     228.360
  C      -59.810    -196.167     229.663
  C      -59.713    -196.998     230.755
  C      -59.720    -198.425     230.523
  O      -59.610    -199.295     231.383
  N      -59.608    -196.279     231.919
  C      -59.665    -195.020     231.532
  N      -59.778    -194.900     230.167
  O      -64.228    -192.974     232.576
  O      -62.813    -191.123     233.493
  H      -60.632    -193.584     226.856
  H      -62.748    -191.846     234.148
  H      -59.883    -199.720     228.970
  H      -59.612    -194.160     232.192
  H      -58.897    -193.738     228.737
  H      -61.888    -193.526     229.395
  H      -60.319    -199.258     226.712
  H      -61.957    -191.360     228.629
  H      -60.447    -197.604     226.218
  H      -59.526    -190.553     229.763
  H      -60.623    -190.965     232.015
  H      -61.642    -190.056     230.896
  P      -61.022    -190.334     226.334
  C      -60.631    -191.672     224.182
  O      -60.230    -190.560     224.961
  O      -60.629    -188.833     226.729
  O      -62.505    -190.466     226.221
  H      -61.440    -188.318     226.908
  H      -59.862    -191.869     223.429
  H      -61.572    -191.442     223.673
  H      -60.755    -192.559     224.805
  H      -65.536    -188.961     231.572
  H      -64.470    -189.125     232.947
  H      -65.849    -190.184     232.779

 3  4  5  6  7  8  9  10  11  12  23  26  30  31 0
 6-311+G(2d,p)
 ****
 33  35  36  37  38 0
 6-311+G(2d,p)
 ****
 1  2  13  14  15  16  17  18  19  20  21  22  24  25 0
 3-21G
 ****
 27  28  29  32  34  39  40  41  42  43  44  45  46  47  48  49 0
 3-21G
 ****


