%nproc=1
%NoSave
%Mem=1900MB
#P OB98/GEN NMR

erre ene a

0 1
  C      102.035     255.796     181.340
  O      102.077     254.453     181.781
  H      101.002     256.153     181.316
  H      102.604     256.413     182.039
  H      102.483     255.883     180.346
  P      101.319     253.374     180.867
  C      103.129     253.732     179.043
  O      101.745     253.694     179.354
  C      103.617     252.343     178.646
  O      102.904     251.879     177.481
  C      105.096     252.268     178.278
  O      105.923     252.214     179.430
  C      105.130     250.958     177.506
  O      105.137     249.851     178.427
  C      103.796     251.001     176.744
  N      105.286     249.835     171.992
  C      105.213     249.098     173.120
  N      104.786     249.472     174.344
  C      104.387     250.754     174.333
  C      104.381     251.626     173.257
  C      104.863     251.124     172.037
  N      104.996     251.910     170.904
  N      103.914     252.870     173.638
  C      103.663     252.753     174.925
  N      103.926     251.494     175.387
  O       99.790     253.856     180.944
  O      101.473     251.955     181.299
  H      104.374     249.978     179.023
  H       99.325     253.333     181.622
  H      105.547     248.069     173.030
  H      103.296     253.550     175.557
  H      103.315     250.017     176.698
  H      106.013     250.856     176.870
  H      105.387     253.086     177.609
  H      103.387     251.656     179.469
  H      103.690     254.074     179.920
  H      105.745     251.607     170.287
  H      104.919     252.906     171.074
  H      103.285     254.439     178.224
  P      107.427     252.756     179.295
  C      106.669     255.031     180.263
  O      107.329     254.356     179.201
  O      107.834     252.310     177.812
  O      108.388     252.224     180.301
  H      108.644     251.769     177.841
  H      106.675     256.084     180.075
  H      107.176     254.830     181.183
  H      105.658     254.687     180.331

 6  7  8  9  10  11  12  13  14  15  25  28  32  33  34  35 0
 6-311+G(2d,p)
 ****
 36  39  40 0
 6-311+G(2d,p)
 ****
 1  2  3  4  5  16  17  18  19  20  21  22  23  24 0
 3-21G
 ****
 26  27  29  30  31  37  38  41  42  43  44  45  46  47  48 0
 3-21G
 ****


