%nproc=1
%NoSave
%Mem=1900MB
#P OB98/GEN NMR

erre ene a

0 1
  C      -59.184    1101.887     400.212
  O      -60.148    1100.971     399.727
  H      -58.553    1101.376     400.939
  H      -59.680    1102.728     400.703
  H      -58.556    1102.246     399.385
  P      -61.197    1101.537     398.651
  C      -62.771    1099.980     400.002
  O      -62.507    1100.610     398.765
  C      -63.812    1098.883     399.824
  O      -65.139    1099.451     399.682
  C      -63.595    1097.976     398.624
  O      -62.659    1096.954     398.913
  C      -64.993    1097.434     398.394
  O      -65.299    1096.344     399.290
  C      -65.875    1098.655     398.713
  N      -69.210    1099.352     394.977
  C      -69.221    1098.464     396.029
  N      -70.248    1097.572     396.055
  N      -68.293    1098.419     396.962
  C      -67.308    1099.326     396.779
  C      -67.200    1100.276     395.791
  C      -68.239    1100.339     394.787
  O      -68.324    1101.150     393.869
  N      -66.077    1101.037     395.961
  C      -65.489    1100.530     397.025
  N      -66.199    1099.472     397.553
  O      -60.564    1101.114     397.242
  O      -61.453    1103.011     398.717
  H      -66.180    1095.984     399.076
  H      -60.807    1101.776     396.570
  H      -69.944    1099.346     394.299
  H      -64.561    1100.875     397.462
  H      -66.826    1098.381     399.185
  H      -65.127    1097.045     397.383
  H      -70.770    1097.341     395.225
  H      -63.289    1098.564     397.750
  H      -70.255    1096.902     396.815
  H      -63.824    1098.286     400.760
  H      -63.141    1100.722     400.719
  H      -61.832    1099.546     400.386
  P      -61.378    1096.822     397.947
  C      -61.836    1094.261     397.799
  O      -60.898    1095.290     398.047
  O      -60.230    1097.621     398.727
  O      -61.581    1097.349     396.555
  H      -59.497    1097.839     398.116
  H      -61.358    1093.310     397.906
  H      -62.218    1094.359     396.804
  H      -62.642    1094.336     398.499

 6  7  8  9  10  11  12  13  14  15  26  29  33  34 0
 6-311+G(2d,p)
 ****
 36  38  39  40  41 0
 6-311+G(2d,p)
 ****
 1  2  3  4  5  16  17  18  19  20  21  22  23  24  25 0
 3-21G
 ****
 27  28  30  31  32  35  37  42  43  44  45  46  47 0
 3-21G
 ****
 48  49 0
 3-21G
 ****


