%nproc=1
%NoSave
%Mem=1900MB
#P OB98/GEN NMR

erre ene a

0 1
  C      379.835    -225.658     149.269
  O      380.875    -224.703     149.289
  H      379.595    -225.936     150.299
  H      380.143    -226.555     148.727
  H      378.939    -225.234     148.806
  P      381.491    -224.215     147.893
  C      380.210    -222.769     146.174
  O      380.719    -222.869     147.496
  C      379.292    -221.548     146.034
  O      378.269    -221.607     147.067
  C      380.020    -220.203     146.189
  O      379.319    -219.243     145.390
  C      379.819    -219.924     147.664
  O      380.115    -218.587     147.982
  C      378.371    -220.391     147.839
  N      378.013    -220.597     149.233
  C      377.167    -219.641     149.802
  O      376.774    -218.684     149.134
  N      376.810    -219.775     151.118
  C      377.310    -220.741     151.825
  N      376.927    -220.809     153.129
  C      378.255    -221.737     151.279
  C      378.555    -221.610     149.988
  O      381.548    -225.246     146.814
  O      382.955    -223.693     148.277
  H      380.095    -218.445     148.955
  H      383.622    -224.344     147.991
  H      378.657    -222.510     151.916
  H      379.242    -222.293     149.497
  H      377.671    -219.665     147.403
  H      380.490    -220.542     148.269
  H      381.071    -220.248     145.890
  H      378.773    -221.609     145.069
  H      376.286    -220.099     153.462
  H      379.647    -223.685     145.968
  H      377.266    -221.502     153.778
  H      381.034    -222.694     145.458
  P      379.986    -218.499     144.135
  C      380.773    -219.616     141.946
  O      379.669    -219.327     142.800
  O      381.434    -218.174     144.320
  O      379.135    -217.155     143.949
  H      379.713    -216.458     143.586
  H      380.431    -220.169     141.096
  H      381.496    -220.195     142.481
  H      381.221    -218.701     141.620

 6  7  8  9  10  11  12  13  14  15  16  26  30  31  32  33  35 0
 6-311+G(2d,p)
 ****
 37  38 0
 6-311+G(2d,p)
 ****
 1  2  3  4  5  17  18  19  20  21  22  23  24  25 0
 3-21G
 ****
 27  28  29  34  36  39  40  41  42  43  44  45  46 0
 3-21G
 ****


