%nproc=1
%NoSave
%Mem=1900MB
#P OB98/GEN NMR

erre ene a

0 1
  C      234.364    -209.083      78.779
  O      235.574    -208.696      78.157
  H      234.089    -208.323      79.516
  H      234.475    -210.041      79.291
  H      233.563    -209.151      78.035
  P      236.318    -209.769      77.221
  C      236.994    -212.246      77.511
  O      236.601    -211.041      78.162
  C      238.097    -212.961      78.298
  O      237.669    -213.178      79.659
  C      238.436    -214.345      77.763
  O      239.088    -214.333      76.505
  C      239.113    -214.999      78.953
  O      240.508    -214.719      79.039
  C      238.373    -214.338      80.146
  N      237.478    -215.274      80.816
  C      238.009    -215.934      81.924
  O      239.171    -215.775      82.316
  N      237.179    -216.823      82.545
  C      235.910    -217.145      82.146
  O      235.227    -217.982      82.726
  C      235.412    -216.430      80.961
  C      236.206    -215.545      80.359
  O      237.537    -209.270      76.499
  O      235.160    -210.290      76.249
  H      240.609    -213.754      78.976
  H      235.539    -210.752      75.455
  H      237.545    -217.301      83.353
  H      234.410    -216.665      80.615
  H      235.859    -215.005      79.480
  H      239.098    -213.978      80.889
  H      239.007    -216.092      78.923
  H      237.495    -214.885      77.604
  H      238.982    -212.316      78.318
  H      237.378    -211.978      76.516
  H      236.124    -212.900      77.390
  P      239.194    -215.611      75.561
  C      239.903    -218.102      75.809
  O      239.824    -216.822      76.422
  O      239.695    -215.389      74.177
  O      237.646    -216.057      75.451
  H      237.507    -216.428      74.554
  H      240.339    -218.799      76.494
  H      240.509    -218.040      74.930
  H      238.920    -218.431      75.542

 6  7  8  9  10  11  12  13  14  15  16  26  31  32  33  34  35 0
 6-311+G(2d,p)
 ****
 36  37 0
 6-311+G(2d,p)
 ****
 1  2  3  4  5  17  18  19  20  21  22  23  24  25 0
 3-21G
 ****
 27  28  29  30  38  39  40  41  42  43  44  45 0
 3-21G
 ****


