%nproc=1
%NoSave
%Mem=1900MB
#P OB98/GEN NMR

erre ene a

0 1
  C      426.895    -723.870     541.889
  O      427.780    -723.239     540.984
  H      426.673    -723.170     542.702
  H      427.361    -724.759     542.311
  H      425.960    -724.132     541.382
  P      428.249    -724.114     539.721
  C      429.774    -726.212     539.573
  O      429.510    -724.976     540.222
  C      430.632    -727.109     540.460
  O      429.866    -727.595     541.592
  C      431.197    -728.332     539.755
  O      432.374    -728.012     539.031
  C      431.467    -729.254     540.935
  O      432.709    -728.932     541.594
  C      430.269    -728.970     541.847
  N      428.331    -733.464     543.083
  C      429.485    -732.843     543.516
  N      430.261    -733.544     544.368
  N      429.845    -731.643     543.143
  C      428.986    -731.075     542.261
  C      427.809    -731.582     541.774
  C      427.394    -732.902     542.221
  O      426.359    -733.477     541.912
  N      427.205    -730.697     540.911
  C      428.040    -729.674     540.860
  N      429.146    -729.862     541.650
  O      428.915    -723.032     538.741
  O      427.170    -724.888     539.035
  H      433.448    -729.086     540.984
  H      428.786    -723.315     537.818
  H      428.096    -734.387     543.413
  H      427.886    -728.782     540.269
  H      430.539    -729.029     542.915
  H      431.548    -730.304     540.621
  H      430.214    -734.558     544.419
  H      430.443    -728.791     539.099
  H      431.122    -733.105     544.675
  H      431.445    -726.489     540.868
  H      430.304    -726.014     538.635
  H      428.816    -726.709     539.351
  P      432.516    -728.591     537.537
  C      432.290    -731.077     536.794
  O      432.886    -730.145     537.692
  O      433.879    -727.929     537.014
  O      431.357    -728.286     536.644
  H      433.922    -727.988     536.038
  H      432.634    -732.064     537.024
  H      432.563    -730.829     535.790
  H      431.225    -731.038     536.894

 6  7  8  9  10  11  12  13  14  15  26  29  33  34 0
 6-311+G(2d,p)
 ****
 36  38  39  40  41 0
 6-311+G(2d,p)
 ****
 1  2  3  4  5  16  17  18  19  20  21  22  23  24  25 0
 3-21G
 ****
 27  28  30  31  32  35  37  42  43  44  45  46  47 0
 3-21G
 ****
 48  49 0
 3-21G
 ****


