%nproc=1
%NoSave
%Mem=1900MB
#P OB98/GEN NMR

erre ene a

0 1
  C      329.125      99.178     270.333
  O      328.451      98.009     269.901
  H      329.825      98.903     271.128
  H      328.408      99.902     270.736
  H      329.687      99.629     269.515
  P      327.476      98.106     268.633
  C      325.702      99.786     267.803
  O      326.474      99.327     268.903
  C      324.258     100.039     268.251
  O      324.230     100.976     269.347
  C      323.372     100.625     267.157
  O      322.989      99.642     266.221
  C      322.234     101.189     267.997
  O      321.299     100.155     268.357
  C      322.981     101.711     269.248
  N      323.223     103.155     269.200
  C      322.140     103.946     268.827
  O      321.037     103.485     268.510
  N      322.367     105.300     268.798
  C      323.571     105.908     268.987
  O      323.745     107.116     268.861
  C      324.685     105.025     269.357
  C      324.465     103.711     269.441
  O      326.819      96.831     268.223
  O      328.427      98.673     267.472
  H      321.758      99.583     269.003
  H      328.649      97.951     266.857
  H      321.601     105.880     268.515
  H      325.655     105.468     269.525
  H      325.278     103.037     269.713
  H      322.413     101.485     270.158
  H      321.670     101.959     267.469
  H      323.883     101.459     266.671
  H      323.845      99.083     268.611
  H      325.713      99.019     267.023
  H      326.148     100.711     267.409
  P      322.312     100.082     264.840
  C      320.844     102.007     263.977
  O      321.452     101.407     265.110
  O      321.590      98.997     264.102
  O      323.548     100.630     263.972
  H      323.635     100.095     263.151
  H      320.301     102.877     264.282
  H      320.172     101.310     263.521
  H      321.600     102.287     263.273

 6  7  8  9  10  11  12  13  14  15  16  26  31  32  33  34  35 0
 6-311+G(2d,p)
 ****
 36  37 0
 6-311+G(2d,p)
 ****
 1  2  3  4  5  17  18  19  20  21  22  23  24  25 0
 3-21G
 ****
 27  28  29  30  38  39  40  41  42  43  44  45 0
 3-21G
 ****


