%nproc=1
%NoSave
%Mem=1900MB
#P OB98/GEN NMR

erre ene a

0 1
  C     -595.619     175.398     154.048
  O     -594.457     175.035     153.321
  P     -593.559     173.831     153.879
  C     -593.546     172.309     151.776
  O     -593.995     172.491     153.115
  C     -593.709     170.849     151.346
  O     -592.745     170.023     152.055
  C     -595.099     170.272     151.632
  O     -595.443     169.330     150.606
  C     -594.899     169.495     152.916
  O     -595.891     168.481     153.071
  C     -593.478     168.970     152.717
  N     -592.801     165.276     156.098
  C     -593.290     165.205     154.806
  N     -593.734     164.000     154.396
  N     -593.327     166.226     153.989
  C     -592.853     167.373     154.539
  C     -592.330     167.561     155.803
  C     -592.305     166.427     156.698
  O     -591.912     166.427     157.859
  N     -591.919     168.852     155.983
  C     -592.230     169.461     154.854
  N     -592.828     168.613     153.961
  O     -594.131     173.623     155.362
  O     -592.095     174.109     153.906
  H     -595.791     167.868     152.312
  H     -593.499     173.981     156.013
  H     -592.804     164.461     156.690
  H     -592.065     170.511     154.640
  H     -593.459     168.092     152.062
  H     -594.964     170.169     153.779
  H     -593.792     163.192     155.001
  H     -595.893     171.024     151.718
  H     -594.137     163.932     153.473
  H     -593.472     170.775     150.277
  H     -592.490     172.585     151.717
  H     -594.109     172.963     151.108
  P     -597.011     169.195     150.278
  C     -597.134     170.557     148.065
  O     -597.399     170.509     149.452
  O     -597.709     169.421     151.701
  O     -597.392     167.893     149.653
  H     -598.578     168.981     151.719
  H     -598.082     170.647     147.523
  H     -596.607     169.667     147.708
  H     -596.519     171.438     147.852
  H     -596.109     176.211     153.554
  H     -595.342     175.696     155.037
  H     -596.283     174.560     154.101

 3  4  5  6  7  8  9  10  11  12  23  26  30  31 0
 6-311+G(2d,p)
 ****
 33  35  36  37  38 0
 6-311+G(2d,p)
 ****
 1  2  13  14  15  16  17  18  19  20  21  22  24  25 0
 3-21G
 ****
 27  28  29  32  34  39  40  41  42  43  44  45  46  47  48  49 0
 3-21G
 ****


