%nproc=1
%NoSave
%Mem=1900MB
#P OB98/GEN NMR

erre ene a

0 1
  C       93.912     155.994    -102.065
  O       93.443     155.253    -100.957
  H       93.093     156.604    -102.452
  H       94.246     155.316    -102.856
  H       94.732     156.654    -101.772
  P       94.496     154.426    -100.076
  C       96.500     155.051     -98.576
  O       95.642     155.457     -99.635
  C       97.769     155.897     -98.580
  O       98.603     155.538     -99.703
  C       97.518     157.394     -98.714
  O       97.060     157.941     -97.492
  C       98.891     157.874     -99.155
  O       99.779     157.989     -98.032
  C       99.334     156.722    -100.092
  N       99.128     157.022    -101.508
  C      100.236     157.485    -102.211
  O      101.330     157.681    -101.685
  N      100.037     157.736    -103.543
  C       98.846     157.652    -104.203
  O       98.710     157.941    -105.390
  C       97.703     157.190    -103.404
  C       97.892     156.902    -102.116
  O       94.994     153.156    -100.682
  O       93.711     154.157     -98.706
  H       99.501     158.784     -97.537
  H       93.359     153.247     -98.703
  H      100.825     158.085    -104.066
  H       96.740     157.117    -103.894
  H       97.059     156.564    -101.508
  H      100.396     156.499     -99.942
  H       98.863     158.851     -99.635
  H       96.802     157.588     -99.521
  H       98.330     155.678     -97.661
  H       96.763     153.997     -98.721
  H       95.965     155.158     -97.627
  P       96.045     159.178     -97.478
  C       93.701     159.582     -98.428
  O       94.941     158.911     -98.616
  O       96.683     160.525     -97.535
  O       95.220     158.988     -96.121
  H       95.514     159.645     -95.460
  H       93.039     159.340     -99.233
  H       93.867     160.639     -98.407
  H       93.264     159.271     -97.502

 6  7  8  9  10  11  12  13  14  15  16  26  31  32  33  34  35 0
 6-311+G(2d,p)
 ****
 36  37 0
 6-311+G(2d,p)
 ****
 1  2  3  4  5  17  18  19  20  21  22  23  24  25 0
 3-21G
 ****
 27  28  29  30  38  39  40  41  42  43  44  45 0
 3-21G
 ****


