%nproc=1
%NoSave
%Mem=1900MB
#P OB98/GEN NMR

erre ene a

0 1
  C     -275.324    -284.124     198.448
  O     -275.210    -283.922     197.034
  P     -274.147    -282.834     196.523
  C     -275.678    -280.877     195.766
  O     -274.831    -281.946     195.373
  C     -276.697    -280.537     194.670
  O     -276.053    -280.462     193.370
  C     -277.827    -281.569     194.544
  O     -279.007    -280.891     194.088
  C     -277.327    -282.472     193.433
  O     -278.386    -283.235     192.857
  C     -276.678    -281.440     192.511
  N     -275.693    -282.560     187.693
  C     -276.813    -281.984     188.262
  N     -277.801    -281.623     187.418
  N     -276.948    -281.778     189.549
  C     -275.863    -282.158     190.266
  C     -274.702    -282.744     189.820
  C     -274.575    -282.987     188.398
  O     -273.612    -283.507     187.839
  N     -273.844    -283.008     190.857
  C     -274.489    -282.587     191.928
  N     -275.701    -282.034     191.617
  O     -273.078    -283.723     195.722
  O     -273.490    -282.066     197.624
  H     -279.083    -282.602     192.582
  H     -272.253    -283.778     196.229
  H     -275.645    -282.702     186.697
  H     -274.128    -282.661     192.942
  H     -277.417    -280.923     191.883
  H     -276.579    -283.168     193.827
  H     -277.739    -281.703     186.415
  H     -278.058    -282.116     195.463
  H     -278.616    -281.159     187.804
  H     -277.126    -279.551     194.883
  H     -275.084    -279.989     195.996
  H     -276.178    -281.149     196.701
  P     -280.259    -280.864     195.089
  C     -281.882    -281.849     193.314
  O     -281.564    -280.763     194.164
  O     -280.168    -279.416     195.767
  O     -280.272    -281.961     196.101
  H     -280.605    -279.422     196.637
  H     -282.708    -282.411     193.753
  H     -281.025    -282.513     193.162
  H     -282.197    -281.453     192.343
  H     -276.064    -284.872     198.643
  H     -275.612    -283.206     198.917
  H     -274.381    -284.445     198.840

 3  4  5  6  7  8  9  10  11  12  23  26  30  31 0
 6-311+G(2d,p)
 ****
 33  35  36  37  38 0
 6-311+G(2d,p)
 ****
 1  2  13  14  15  16  17  18  19  20  21  22  24  25 0
 3-21G
 ****
 27  28  29  32  34  39  40  41  42  43  44  45  46  47  48  49 0
 3-21G
 ****


