%nproc=1
%NoSave
%Mem=1900MB
#P OB98/GEN NMR

erre ene a

0 1
  C     -434.659     487.256    1070.777
  O     -435.530     487.957    1069.929
  P     -436.968     487.294    1069.622
  C     -438.092     489.380    1070.723
  O     -438.012     487.953    1070.647
  C     -439.460     489.843    1070.265
  O     -440.517     489.116    1070.924
  C     -439.754     491.328    1070.531
  O     -439.058     492.155    1069.622
  C     -441.270     491.328    1070.377
  O     -441.628     491.359    1068.985
  C     -441.661     489.993    1071.008
  N     -445.236     491.827    1074.191
  C     -445.111     491.904    1072.865
  N     -444.121     491.416    1072.084
  C     -443.200     490.771    1072.824
  C     -443.189     490.642    1074.219
  C     -444.266     491.191    1074.893
  N     -444.414     491.121    1076.278
  N     -442.078     489.939    1074.625
  C     -441.433     489.648    1073.529
  N     -442.064     490.125    1072.403
  O     -436.793     485.801    1070.184
  O     -437.384     487.319    1068.187
  H     -442.575     491.544    1068.942
  H     -437.297     485.153    1069.647
  H     -445.913     492.423    1072.314
  H     -440.496     489.114    1073.459
  H     -442.486     489.495    1070.475
  H     -441.737     492.214    1070.864
  H     -439.468     491.597    1071.563
  H     -439.522     489.646    1069.167
  H     -437.316     489.818    1070.091
  H     -445.136     491.669    1076.695
  H     -443.626     490.767    1076.810
  H     -437.900     489.693    1071.771
  P     -439.015     493.749    1069.951
  C     -436.458     493.603    1070.113
  O     -437.659     493.937    1070.771
  O     -440.152     493.864    1071.076
  O     -439.190     494.635    1068.756
  H     -440.041     493.170    1071.781
  H     -435.622     493.843    1070.762
  H     -436.373     494.179    1069.189
  H     -436.440     492.533    1069.864
  H     -433.750     487.809    1070.891
  H     -434.443     486.298    1070.353
  H     -435.120     487.127    1071.734

 3  4  5  6  7  8  9  10  11  12  22  25  29  30  31  32 0
 6-311+G(2d,p)
 ****
 33  36  37 0
 6-311+G(2d,p)
 ****
 1  2  13  14  15  16  17  18  19  20  21  23  24  26 0
 3-21G
 ****
 27  28  34  35  38  39  40  41  42  43  44  45  46  47  48 0
 3-21G
 ****


