%nproc=1
%NoSave
%Mem=1900MB
#P OB98/GEN NMR

erre ene a

0 1
  C      753.765    -590.231     -93.889
  O      755.077    -590.722     -93.693
  H      753.791    -589.178     -94.184
  H      753.293    -590.811     -94.688
  H      753.181    -590.355     -92.969
  P      755.981    -589.934     -92.633
  C      756.663    -587.451     -92.295
  O      756.098    -588.419     -93.162
  C      756.193    -586.056     -92.680
  O      754.755    -585.964     -92.574
  C      756.731    -584.932     -91.796
  O      758.067    -584.582     -92.134
  C      755.752    -583.813     -92.126
  O      756.134    -583.196     -93.376
  C      754.430    -584.573     -92.306
  N      751.629    -581.527     -89.263
  C      752.387    -581.258     -90.362
  N      753.113    -582.117     -91.110
  C      752.985    -583.373     -90.645
  C      752.257    -583.785     -89.550
  C      751.555    -582.810     -88.836
  N      750.800    -583.080     -87.720
  N      752.357    -585.155     -89.384
  C      753.136    -585.560     -90.372
  N      753.553    -584.513     -91.151
  O      757.450    -590.519     -92.875
  O      755.565    -590.076     -91.201
  H      756.280    -583.924     -94.009
  H      757.919    -590.570     -92.023
  H      752.412    -580.218     -90.666
  H      753.425    -586.588     -90.555
  H      753.868    -584.208     -93.178
  H      755.721    -583.032     -91.371
  H      756.638    -585.182     -90.725
  H      756.466    -585.876     -93.729
  H      757.757    -587.497     -92.367
  H      750.166    -582.377     -87.376
  H      750.741    -584.045     -87.414
  H      756.371    -587.681     -91.262
  P      758.996    -584.007     -90.962
  C      758.724    -581.869     -89.518
  O      758.597    -582.458     -90.804
  O      760.441    -583.946     -91.648
  O      759.012    -584.815     -89.706
  H      761.132    -583.995     -90.964
  H      758.425    -580.843     -89.565
  H      759.743    -581.930     -89.197
  H      758.100    -582.391     -88.823

 6  7  8  9  10  11  12  13  14  15  25  28  32  33  34  35 0
 6-311+G(2d,p)
 ****
 36  39  40 0
 6-311+G(2d,p)
 ****
 1  2  3  4  5  16  17  18  19  20  21  22  23  24 0
 3-21G
 ****
 26  27  29  30  31  37  38  41  42  43  44  45  46  47  48 0
 3-21G
 ****


