%nproc=1
%NoSave
%Mem=1900MB
#P OB98/GEN NMR

erre ene a

0 1
  C      -83.626    -491.422     -23.532
  O      -83.049    -490.197     -23.133
  H      -83.767    -492.046     -22.646
  H      -82.957    -491.940     -24.221
  H      -84.597    -491.265     -24.007
  P      -82.999    -488.984     -24.181
  C      -85.300    -487.947     -23.650
  O      -83.892    -487.807     -23.553
  C      -85.963    -486.603     -23.961
  O      -87.393    -486.815     -24.139
  C      -85.790    -485.552     -22.857
  O      -85.769    -484.265     -23.488
  C      -87.071    -485.726     -22.059
  O      -87.321    -484.611     -21.234
  C      -88.075    -485.976     -23.187
  N      -89.320    -486.580     -22.705
  C      -90.438    -485.760     -22.684
  O      -90.414    -484.571     -23.015
  N      -91.591    -486.332     -22.224
  C      -91.714    -487.599     -21.734
  O      -92.768    -488.053     -21.306
  C      -90.483    -488.405     -21.739
  C      -89.361    -487.871     -22.218
  O      -83.333    -489.335     -25.593
  O      -81.513    -488.403     -24.043
  H      -88.189    -484.710     -20.780
  H      -81.221    -488.028     -24.896
  H      -92.419    -485.751     -22.213
  H      -90.544    -489.413     -21.347
  H      -88.434    -488.440     -22.239
  H      -88.329    -485.032     -23.689
  H      -87.003    -486.606     -21.408
  H      -84.888    -485.699     -22.257
  H      -85.578    -486.233     -24.916
  H      -85.670    -488.330     -22.691
  H      -85.540    -488.672     -24.436
  P      -84.777    -483.097     -23.013
  C      -82.463    -483.950     -23.765
  O      -83.528    -483.038     -24.022
  O      -84.392    -483.167     -21.567
  O      -85.566    -481.737     -23.319
  H      -85.277    -481.041     -22.702
  H      -81.695    -483.817     -24.498
  H      -82.833    -484.953     -23.814
  H      -82.062    -483.765     -22.790

 6  7  8  9  10  11  12  13  14  15  16  26  31  32  33  34  35 0
 6-311+G(2d,p)
 ****
 36  37 0
 6-311+G(2d,p)
 ****
 1  2  3  4  5  17  18  19  20  21  22  23  24  25 0
 3-21G
 ****
 27  28  29  30  38  39  40  41  42  43  44  45 0
 3-21G
 ****


