%nproc=1
%NoSave
%Mem=1900MB
#P OB98/GEN NMR

erre ene a

0 1
  C       67.707     693.561    -189.619
  O       67.361     694.922    -189.394
  P       68.365     695.801    -188.508
  C       69.316     696.725    -190.727
  O       69.612     696.175    -189.454
  C       70.130     698.002    -190.971
  O       71.543     697.716    -190.752
  C       69.979     698.605    -192.369
  O       69.845     700.019    -192.267
  C       71.326     698.315    -193.022
  O       71.625     699.242    -194.059
  C       72.252     698.407    -191.799
  N       76.732     699.063    -194.074
  C       75.679     699.965    -193.889
  N       75.836     701.193    -194.447
  N       74.585     699.682    -193.221
  C       74.582     698.436    -192.707
  C       75.554     697.459    -192.817
  C       76.725     697.772    -193.598
  O       77.637     696.981    -193.881
  N       75.198     696.316    -192.127
  C       74.001     696.599    -191.623
  N       73.559     697.856    -191.978
  O       68.972     694.725    -187.472
  O       67.731     696.949    -187.776
  H       71.587     700.133    -193.656
  H       68.817     695.016    -186.562
  H       77.537     699.325    -194.595
  H       73.426     695.928    -191.012
  H       72.366     699.463    -191.493
  H       71.310     697.311    -193.433
  H       76.672     701.482    -194.922
  H       69.146     698.178    -192.940
  H       75.099     701.866    -194.298
  H       69.843     698.751    -190.194
  H       68.243     696.968    -190.781
  H       69.562     695.992    -191.505
  P       69.102     700.752    -193.505
  C       66.685     700.191    -192.677
  O       67.692     700.005    -193.662
  O       69.931     700.263    -194.776
  O       69.037     702.243    -193.379
  H       69.844     700.901    -195.518
  H       66.959     700.998    -191.978
  H       66.551     699.260    -192.120
  H       65.739     700.452    -193.165
  H       66.954     693.097    -190.221
  H       67.778     693.051    -188.681
  H       68.649     693.511    -190.124

 3  4  5  6  7  8  9  10  11  12  23  26  30  31  33  0
 6-311+G(2d,p)
 ****
 35  36  37  38 0
 6-311+G(2d,p)
 ****
 1  2  13  14  15  16  17  18  19  20  21  22  24  25  27  28  29 0
 3-21G
 ****
 32  34  39  40  41  42  43  44  45  46  47  48  49 0
 3-21G
 ****


