%nproc=1
%NoSave
%Mem=1900MB
#P OB98/GEN NMR

erre ene a

0 1
  C     -607.553    -322.237      49.902
  O     -607.874    -320.915      50.299
  H     -608.397    -322.676      49.357
  H     -606.684    -322.205      49.246
  H     -607.317    -322.850      50.779
  P     -609.151    -320.750      51.262
  C     -611.716    -320.662      50.937
  O     -610.457    -320.910      50.336
  C     -612.839    -321.054      49.974
  O     -612.790    -320.154      48.839
  C     -612.742    -322.499      49.447
  O     -613.998    -323.179      49.603
  C     -612.462    -322.334      47.963
  O     -613.062    -323.347      47.168
  C     -613.035    -320.951      47.667
  N     -613.377    -320.502      42.596
  C     -614.292    -320.833      43.521
  N     -614.167    -320.842      44.867
  C     -612.937    -320.421      45.234
  C     -611.902    -320.028      44.399
  C     -612.146    -320.097      43.015
  N     -611.195    -319.810      42.063
  N     -610.789    -319.668      45.137
  C     -611.137    -319.891      46.398
  N     -612.416    -320.357      46.497
  O     -609.134    -319.189      51.629
  O     -609.115    -321.604      52.487
  H     -612.900    -323.117      46.230
  H     -609.027    -319.095      52.599
  H     -615.263    -321.142      43.138
  H     -610.484    -319.763      47.250
  H     -614.120    -320.987      47.503
  H     -611.377    -322.356      47.797
  H     -611.954    -323.073      49.942
  H     -613.804    -320.895      50.479
  H     -611.808    -319.598      51.175
  H     -611.417    -320.006      41.100
  H     -610.248    -319.617      42.376
  H     -611.793    -321.236      51.864
  P     -614.047    -324.327      50.734
  C     -613.428    -326.855      50.891
  O     -613.519    -325.697      50.066
  O     -615.617    -324.570      50.933
  O     -613.376    -323.942      52.012
  H     -615.848    -324.445      51.866
  H     -613.065    -327.678      50.312
  H     -614.396    -327.092      51.281
  H     -612.755    -326.664      51.700

 6  7  8  9  10  11  12  13  14  15  25  28  32  33  34  35 0
 6-311+G(2d,p)
 ****
 36  39  40 0
 6-311+G(2d,p)
 ****
 1  2  3  4  5  16  17  18  19  20  21  22  23  24 0
 3-21G
 ****
 26  27  29  30  31  37  38  41  42  43  44  45  46  47  48 0
 3-21G
 ****


