%nproc=1
%NoSave
%Mem=1900MB
#P OB98/GEN NMR

erre ene a

0 1
  C     -274.852     175.263    -171.644
  O     -275.150     176.192    -172.674
  P     -276.026     175.667    -173.925
  C     -275.589     173.917    -175.789
  O     -275.019     174.758    -174.792
  C     -274.775     174.004    -177.079
  O     -273.418     173.562    -176.824
  C     -275.285     173.117    -178.210
  O     -276.370     173.712    -178.897
  C     -274.046     173.031    -179.106
  O     -273.960     174.210    -179.929
  C     -272.905     173.015    -178.060
  N     -270.001     169.258    -179.822
  C     -270.291     170.489    -180.388
  N     -269.710     170.759    -181.566
  N     -271.089     171.373    -179.827
  C     -271.571     170.973    -178.627
  C     -271.352     169.777    -177.968
  C     -270.517     168.793    -178.604
  O     -270.267     167.656    -178.207
  N     -272.017     169.740    -176.764
  C     -272.588     170.926    -176.669
  N     -272.376     171.693    -177.808
  O     -276.206     176.977    -174.815
  O     -277.343     175.039    -173.560
  H     -273.144     174.106    -180.461
  H     -277.012     176.898    -175.364
  H     -269.362     168.617    -180.273
  H     -273.153     171.268    -175.807
  H     -272.074     173.675    -178.380
  H     -274.064     172.170    -179.760
  H     -268.977     170.187    -181.976
  H     -275.544     172.118    -177.845
  H     -269.878     171.670    -181.979
  H     -274.747     175.058    -177.397
  H     -276.623     174.253    -176.003
  H     -275.629     172.884    -175.415
  P     -277.482     172.714    -179.490
  C     -277.451     170.917    -181.388
  O     -276.804     172.026    -180.782
  O     -278.575     173.697    -180.096
  O     -278.061     171.776    -178.478
  H     -279.453     173.256    -180.119
  H     -278.538     171.018    -181.341
  H     -277.140     170.007    -180.863
  H     -277.132     170.866    -182.431
  H     -274.270     175.745    -170.886
  H     -274.298     174.444    -172.052
  H     -275.763     174.899    -171.217

 3  4  5  6  7  8  9  10  11  12  23  26  30  31  33  0
 6-311+G(2d,p)
 ****
 35  36  37  38 0
 6-311+G(2d,p)
 ****
 1  2  13  14  15  16  17  18  19  20  21  22  24  25  27  28  29 0
 3-21G
 ****
 32  34  39  40  41  42  43  44  45  46  47  48  49 0
 3-21G
 ****


