%nproc=1
%NoSave
%Mem=1900MB
#P OB98/GEN NMR

erre ene a

0 1
  C     -102.821    -114.292     -37.980
  O     -102.086    -115.220     -38.753
  H     -102.973    -113.385     -38.573
  H     -102.272    -114.026     -37.072
  H     -103.798    -114.705     -37.716
  P     -101.660    -116.609     -38.078
  C      -99.349    -115.516     -37.679
  O     -100.412    -116.285     -37.126
  C      -98.217    -115.354     -36.663
  O      -98.672    -114.595     -35.525
  C      -97.692    -116.670     -36.101
  O      -96.876    -117.327     -37.051
  C      -96.975    -116.175     -34.856
  O      -95.697    -115.609     -35.188
  C      -97.948    -115.073     -34.366
  N      -98.870    -115.531     -33.330
  C      -99.149    -114.614     -32.307
  O      -98.617    -113.503     -32.307
  N     -100.010    -114.996     -31.306
  C     -100.575    -116.161     -31.343
  N     -101.421    -116.474     -30.323
  C     -100.334    -117.141     -32.418
  C      -99.472    -116.770     -33.363
  O     -101.442    -117.759     -39.014
  O     -102.840    -116.910     -37.038
  H      -95.176    -116.332     -35.591
  H     -103.516    -117.486     -37.445
  H     -100.835    -118.098     -32.414
  H      -99.239    -117.432     -34.192
  H      -97.387    -114.216     -33.968
  H      -96.794    -116.974     -34.136
  H      -98.525    -117.312     -35.789
  H      -97.414    -114.779     -37.143
  H     -101.569    -115.760     -29.617
  H      -99.762    -114.536     -37.942
  H     -102.034    -117.277     -30.330
  H      -98.967    -115.985     -38.594
  P      -96.834    -118.928     -37.158
  C      -94.526    -119.142     -36.045
  O      -95.913    -119.422     -35.937
  O      -96.446    -119.463     -38.495
  O      -98.298    -119.377     -36.690
  H      -98.952    -119.228     -37.418
  H      -94.018    -119.515     -35.180
  H      -94.380    -118.084     -36.116
  H      -94.134    -119.615     -36.921

 6  7  8  9  10  11  12  13  14  15  16  26  30  31  32  33  35 0
 6-311+G(2d,p)
 ****
 37  38 0
 6-311+G(2d,p)
 ****
 1  2  3  4  5  17  18  19  20  21  22  23  24  25 0
 3-21G
 ****
 27  28  29  34  36  39  40  41  42  43  44  45  46 0
 3-21G
 ****


