%nproc=1
%NoSave
%Mem=1900MB
#P OB98/GEN NMR

erre ene a

0 1
  C      383.481    -131.918    -127.488
  O      383.787    -132.558    -126.268
  H      382.529    -132.312    -127.859
  H      384.256    -132.122    -128.233
  H      383.379    -130.842    -127.341
  P      385.174    -132.211    -125.542
  C      386.603    -134.306    -126.025
  O      386.330    -132.952    -126.374
  C      387.701    -134.871    -126.933
  O      387.154    -134.976    -128.275
  C      388.944    -133.971    -126.987
  O      390.151    -134.663    -126.694
  C      388.829    -133.299    -128.351
  O      390.061    -132.884    -128.909
  C      388.068    -134.333    -129.186
  N      387.342    -133.765    -130.322
  C      388.071    -132.998    -131.226
  O      389.281    -132.784    -131.159
  N      387.350    -132.469    -132.263
  C      386.013    -132.609    -132.475
  O      385.426    -132.117    -133.429
  C      385.291    -133.413    -131.472
  C      385.980    -133.943    -130.456
  O      385.209    -132.452    -124.070
  O      385.418    -130.665    -125.888
  H      389.891    -132.584    -129.823
  H      385.188    -130.118    -125.115
  H      387.874    -131.923    -132.931
  H      384.227    -133.540    -131.601
  H      385.483    -134.541    -129.699
  H      388.751    -135.093    -129.573
  H      388.207    -132.403    -128.240
  H      388.901    -133.200    -126.210
  H      387.949    -135.887    -126.600
  H      385.675    -134.877    -126.147
  H      386.922    -134.359    -124.979
  P      391.041    -134.430    -125.390
  C      392.657    -132.780    -126.639
  O      391.783    -133.023    -125.541
  O      391.872    -135.587    -124.953
  O      389.941    -134.158    -124.236
  H      390.317    -134.511    -123.404
  H      393.055    -131.789    -126.566
  H      392.114    -132.880    -127.556
  H      393.459    -133.488    -126.620

 6  7  8  9  10  11  12  13  14  15  16  26  31  32  33  34  35 0
 6-311+G(2d,p)
 ****
 36  37 0
 6-311+G(2d,p)
 ****
 1  2  3  4  5  17  18  19  20  21  22  23  24  25 0
 3-21G
 ****
 27  28  29  30  38  39  40  41  42  43  44  45 0
 3-21G
 ****


