%nproc=1
%NoSave
%Mem=1900MB
#P OB98/GEN NMR

erre ene a

0 1
  C     -169.557     274.774    -116.187
  O     -170.619     275.634    -115.825
  H     -168.689     275.364    -116.492
  H     -169.286     274.169    -115.319
  H     -169.861     274.109    -117.001
  P     -171.288     276.491    -117.005
  C     -173.637     276.194    -115.928
  O     -172.643     277.098    -116.389
  C     -173.505     275.979    -114.418
  O     -173.587     277.266    -113.753
  C     -174.597     275.079    -113.831
  O     -174.019     274.249    -112.823
  C     -175.562     276.067    -113.196
  O     -176.319     275.479    -112.146
  C     -174.614     277.173    -112.746
  N     -176.849     280.316    -109.401
  C     -176.166     279.164    -109.240
  N     -175.595     278.389    -110.185
  C     -175.744     278.942    -111.402
  C     -176.414     280.107    -111.726
  C     -176.997     280.809    -110.656
  N     -177.727     281.965    -110.816
  N     -176.380     280.324    -113.091
  C     -175.701     279.308    -113.580
  N     -175.298     278.445    -112.598
  O     -171.811     275.348    -118.002
  O     -170.393     277.465    -117.691
  H     -175.718     275.317    -111.389
  H     -171.066     275.021    -118.540
  H     -176.069     278.814    -108.214
  H     -175.481     279.145    -114.627
  H     -174.134     276.949    -111.781
  H     -176.261     276.438    -113.955
  H     -175.083     274.455    -114.583
  H     -172.504     275.578    -114.208
  H     -173.515     275.237    -116.446
  H     -178.157     282.371    -110.001
  H     -177.900     282.314    -111.748
  H     -174.628     276.600    -116.157
  P     -173.496     272.805    -113.292
  C     -171.376     272.684    -111.804
  O     -172.661     272.146    -112.085
  O     -172.381     273.150    -114.385
  O     -174.571     271.936    -113.863
  H     -172.534     272.627    -115.193
  H     -170.939     272.154    -110.984
  H     -171.471     273.719    -111.550
  H     -170.751     272.584    -112.667

 6  7  8  9  10  11  12  13  14  15  25  28  32  33  34  35 0
 6-311+G(2d,p)
 ****
 36  39  40 0
 6-311+G(2d,p)
 ****
 1  2  3  4  5  16  17  18  19  20  21  22  23  24 0
 3-21G
 ****
 26  27  29  30  31  37  38  41  42  43  44  45  46  47 0
 3-21G
 ****
 48 0
 3-21G
 ****


