%nproc=1
%NoSave
%Mem=1900MB
#P OB98/GEN NMR

erre ene a

0 1
  C     -280.584     -26.545     102.462
  O     -280.713     -25.455     103.354
  H     -280.960     -27.446     102.952
  H     -279.532     -26.694     102.201
  H     -281.169     -26.364     101.555
  P     -280.227     -24.026     102.808
  C     -277.867     -24.453     103.830
  O     -278.630     -24.120     102.681
  C     -276.370     -24.297     103.540
  O     -275.974     -25.306     102.563
  C     -275.990     -22.931     102.941
  O     -274.638     -22.636     103.332
  C     -276.039     -23.222     101.450
  O     -275.414     -22.198     100.712
  C     -275.390     -24.603     101.442
  N     -273.135     -26.625      97.322
  C     -272.630     -26.003      98.409
  N     -273.292     -25.502      99.471
  C     -274.614     -25.713      99.353
  C     -275.274     -26.343      98.307
  C     -274.476     -26.807      97.249
  N     -274.989     -27.436      96.138
  N     -276.638     -26.368      98.539
  C     -276.795     -25.769      99.702
  N     -275.603     -25.348     100.226
  O     -280.454     -23.060     104.062
  O     -280.927     -23.533     101.586
  H     -275.662     -22.249      99.767
  H     -281.317     -22.610     103.984
  H     -271.548     -25.889      98.425
  H     -277.743     -25.605     100.203
  H     -274.308     -24.546     101.613
  H     -277.072     -23.276     101.097
  H     -276.647     -22.119     103.263
  H     -275.803     -24.500     104.455
  H     -278.085     -25.492     104.103
  H     -278.147     -23.797     104.659
  H     -274.348     -27.726      95.416
  H     -275.986     -27.564      96.063
  P     -274.375     -21.525     104.463
  C     -273.199     -19.734     102.961
  O     -274.316     -20.083     103.762
  O     -272.831     -21.778     104.824
  O     -275.224     -21.628     105.687
  H     -272.663     -21.509     105.745
  H     -273.330     -18.744     102.578
  H     -273.115     -20.423     102.147
  H     -272.309     -19.772     103.554

 6  7  8  9  10  11  12  13  14  15  25  28  32  33  34  35 0
 6-311+G(2d,p)
 ****
 36  37  40 0
 6-311+G(2d,p)
 ****
 1  2  3  4  5  16  17  18  19  20  21  22  23  24 0
 3-21G
 ****
 26  27  29  30  31  38  39 41  42  43  44  45  46  47  48 0
 3-21G
 ****


