%nproc=1
%NoSave
%Mem=1900MB
#P OB98/GEN NMR

erre ene a

0 1
  C       -1.672       9.552      17.027
  O       -0.974       8.354      17.283
  P        0.614       8.276      17.078
  C       -0.022       6.662      15.177
  O        0.848       7.708      15.593
  C       -0.564       6.955      13.781
  O       -1.020       8.328      13.675
  C        0.468       6.818      12.672
  O        0.977       5.529      12.414
  C       -0.231       7.529      11.525
  O       -1.180       6.678      10.886
  C       -0.953       8.680      12.271
  N       -0.288       9.965      12.065
  C       -0.925      10.848      11.201
  O       -1.984      10.596      10.628
  N       -0.285      12.038      10.984
  C        0.924      12.403      11.499
  O        1.462      13.468      11.227
  C        1.557      11.422      12.392
  C        0.934      10.265      12.632
  O        1.356       7.545      18.145
  O        1.041       9.811      16.923
  H       -0.690       5.921      10.509
  H        0.625      10.276      16.176
  H       -0.723      12.688      10.351
  H        2.512      11.686      12.828
  H        1.382       9.525      13.287
  H       -1.988       8.771      11.920
  H        0.477       7.857      10.757
  H        1.340       7.429      12.941
  H       -1.432       6.313      13.607
  H       -0.860       6.596      15.878
  H        0.514       5.708      15.204
  P        2.537       5.169      12.469
  C        2.884       5.315       9.905
  O        3.246       5.801      11.179
  O        2.889       3.764      12.828
  O        3.049       6.147      13.637
  H        3.795       5.723      14.102
  H        3.493       5.822       9.152
  H        1.831       5.525       9.701
  H        3.071       4.240       9.837
  H       -2.714       9.406      17.220
  H       -1.535       9.833      16.004
  H       -1.297      10.326      17.663

 3  4  5  6  7  8  9  10  11  12  13  23  28  29  30  31  32 0
 6-311+G(2d,p)
 ****
 33  34 0
 6-311+G(2d,p)
 ****
 1  2  14  15  16  17  18  19  20  21  22  24  25  26  27 0
 3-21G
 ****
 35  36  37  38  39  40  41  42  43  44  45 0
 3-21G
 ****


