%nproc=1
%NoSave
%Mem=1900MB
#P OB98/GEN NMR

erre ene a

0 1
  C     -318.411    -147.741     208.956
  O     -318.498    -149.148     209.082
  H     -318.300    -147.305     209.952
  H     -319.326    -147.353     208.501
  H     -317.545    -147.463     208.349
  P     -318.431    -149.989     207.720
  C     -315.816    -150.179     207.760
  O     -316.980    -149.738     207.075
  C     -314.564    -149.715     207.021
  O     -313.374    -150.095     207.739
  C     -314.377    -150.353     205.653
  O     -315.279    -149.852     204.691
  C     -312.924    -149.987     205.370
  O     -312.807    -148.672     204.814
  C     -312.290    -150.047     206.782
  N     -311.381    -151.167     206.917
  C     -310.017    -150.843     206.860
  O     -309.667    -149.670     206.727
  N     -309.099    -151.858     206.920
  C     -309.500    -153.088     207.000
  N     -308.538    -154.048     207.023
  C     -310.925    -153.472     207.059
  C     -311.804    -152.471     207.013
  O     -319.408    -149.166     206.758
  O     -318.784    -151.432     207.859
  H     -313.136    -148.054     205.499
  H     -319.233    -148.210     206.748
  H     -311.208    -154.512     207.140
  H     -312.871    -152.661     207.052
  H     -311.732    -149.123     206.990
  H     -312.469    -150.676     204.654
  H     -314.443    -151.444     205.733
  H     -314.595    -148.620     206.950
  H     -307.576    -153.745     206.924
  H     -315.817    -151.270     207.859
  H     -308.733    -155.039     207.004
  H     -315.843    -149.754     208.768
  P     -315.619    -150.676     203.361
  C     -317.480    -151.908     204.647
  O     -316.322    -152.042     203.829
  O     -314.479    -150.864     202.418
  O     -316.853    -149.864     202.738
  H     -317.634    -149.805     203.314
  H     -317.857    -152.879     204.893
  H     -318.229    -151.358     204.117
  H     -317.224    -151.386     205.545

 6  7  8  9  10  11  12  13  14  15  16  26  30  31  32  33  35 0
 6-311+G(2d,p)
 ****
 37  38 0
 6-311+G(2d,p)
 ****
 1  2  3  4  5  17  18  19  20  21  22  23  24  25 0
 3-21G
 ****
 27  28  29  34  36  39  40  41  42  43  44  45  46 0
 3-21G
 ****


