%nproc=1
%NoSave
%Mem=1900MB
#P OB98/GEN NMR

erre ene a

0 1
  C     -154.328      10.289    -259.437
  O     -153.873      10.493    -258.111
  P     -154.818      10.027    -256.903
  C     -155.946      12.317    -256.428
  O     -156.109      10.983    -256.888
  C     -157.057      12.692    -255.444
  O     -156.715      13.936    -254.775
  C     -158.423      12.897    -256.112
  O     -159.460      12.472    -255.211
  C     -158.527      14.402    -256.245
  O     -159.887      14.827    -256.339
  C     -157.809      14.854    -254.975
  N     -158.993      19.718    -254.268
  C     -159.636      18.583    -253.813
  N     -160.800      18.775    -253.154
  N     -159.177      17.373    -253.985
  C     -158.007      17.335    -254.668
  C     -157.265      18.390    -255.156
  C     -157.796      19.725    -254.969
  O     -157.289      20.768    -255.374
  N     -156.118      17.959    -255.766
  C     -156.175      16.643    -255.685
  N     -157.321      16.215    -255.062
  O     -153.994      10.489    -255.606
  O     -155.103       8.562    -256.866
  H     -159.875      15.798    -256.449
  H     -153.591       9.708    -255.180
  H     -159.393      20.630    -254.123
  H     -155.435      15.959    -256.080
  H     -158.463      14.789    -254.097
  H     -158.004      14.735    -257.147
  H     -161.241      19.678    -253.048
  H     -158.543      12.379    -257.070
  H     -161.312      17.959    -252.846
  H     -157.116      11.919    -254.671
  H     -155.981      12.995    -257.280
  H     -154.968      12.421    -255.946
  P     -160.445      11.329    -255.761
  C     -162.243      13.118    -256.341
  O     -161.425      12.058    -256.793
  O     -161.383      11.015    -254.503
  O     -159.745      10.111    -256.270
  H     -161.734      10.105    -254.559
  H     -161.957      14.035    -256.869
  H     -162.154      13.284    -255.265
  H     -163.287      12.890    -256.575
  H     -153.593      10.649    -260.126
  H     -155.245      10.820    -259.585
  H     -154.490       9.244    -259.602

 3  4  5  6  7  8  9  10  11  12  23  26  30  31 0
 6-311+G(2d,p)
 ****
 33  35  36  37  38 0
 6-311+G(2d,p)
 ****
 1  2  13  14  15  16  17  18  19  20  21  22  24  25 0
 3-21G
 ****
 27  28  29  32  34  39  40  41  42  43  44  45  46  47  48  49 0
 3-21G
 ****


