%nproc=1
%NoSave
%Mem=1900MB
#P OB98/GEN NMR

erre ene a

0 1
  C     1090.797     728.988    -500.967
  O     1090.631     730.321    -501.414
  H     1090.091     728.348    -501.500
  H     1090.604     728.913    -499.894
  H     1091.816     728.643    -501.187
  P     1091.480     731.477    -500.701
  C     1091.797     733.271    -502.544
  O     1091.014     732.830    -501.448
  C     1091.539     734.749    -502.825
  O     1090.289     734.933    -503.541
  C     1091.402     735.620    -501.564
  O     1092.641     735.871    -500.921
  C     1090.801     736.879    -502.191
  O     1091.827     737.608    -502.870
  C     1089.797     736.260    -503.205
  N     1088.427     736.168    -502.653
  C     1087.484     737.038    -503.199
  O     1087.786     737.835    -504.085
  N     1086.197     737.005    -502.712
  C     1085.907     736.194    -501.732
  N     1084.620     736.254    -501.238
  C     1086.867     735.249    -501.142
  C     1088.109     735.278    -501.636
  O     1092.956     731.264    -500.620
  O     1090.785     731.657    -499.258
  H     1091.505     738.514    -503.015
  H     1091.281     732.360    -498.771
  H     1086.567     734.601    -500.331
  H     1088.872     734.636    -501.252
  H     1089.770     736.850    -504.126
  H     1090.347     737.552    -501.449
  H     1090.671     735.187    -500.877
  H     1092.343     735.109    -503.478
  H     1084.001     736.938    -501.639
  H     1091.538     732.658    -503.420
  H     1084.409     735.865    -500.337
  H     1092.860     733.150    -502.322
  P     1092.629     736.006    -499.306
  C     1094.123     733.931    -498.821
  O     1093.997     735.351    -498.800
  O     1091.508     734.953    -498.874
  O     1092.395     737.397    -498.787
  H     1090.636     735.406    -498.780
  H     1095.089     733.653    -498.454
  H     1094.007     733.577    -499.824
  H     1093.368     733.497    -498.200

 6  7  8  9  10  11  12  13  14  15  16  26  30  31  32  33  35 0
 6-311+G(2d,p)
 ****
 37  38 0
 6-311+G(2d,p)
 ****
 1  2  3  4  5  17  18  19  20  21  22  23  24  25 0
 3-21G
 ****
 27  28  29  34  36  39  40  41  42  43  44  45  46 0
 3-21G
 ****


