%nproc=1
%NoSave
%Mem=1900MB
#P OB98/GEN NMR

erre ene a

0 1
  C     -776.156     337.982     290.450
  O     -776.481     337.886     289.081
  H     -775.740     337.029     290.780
  H     -777.057     338.191     291.031
  H     -775.411     338.765     290.625
  P     -776.836     339.222     288.271
  C     -774.502     339.491     287.213
  O     -775.458     340.032     288.104
  C     -773.189     340.281     287.270
  O     -772.779     340.404     288.664
  C     -772.029     339.625     286.509
  O     -771.182     340.678     286.026
  C     -771.333     338.849     287.613
  O     -770.021     338.485     287.244
  C     -771.461     339.834     288.776
  N     -771.245     339.201     290.075
  C     -769.961     339.293     290.603
  O     -769.028     339.842     290.021
  N     -769.763     338.686     291.816
  C     -770.694     337.961     292.500
  O     -770.456     337.412     293.570
  C     -772.021     337.860     291.873
  C     -772.233     338.480     290.708
  O     -777.972     340.023     288.811
  O     -777.120     338.716     286.780
  H     -769.472     339.286     287.116
  H     -777.771     339.303     286.343
  H     -768.845     338.749     292.216
  H     -772.780     337.285     292.390
  H     -773.201     338.425     290.222
  H     -770.733     340.653     288.674
  H     -771.874     337.925     287.835
  H     -772.360     338.991     285.682
  H     -773.376     341.295     286.903
  H     -774.916     339.541     286.199
  H     -774.312     338.443     287.465
  P     -771.493     341.464     284.664
  C     -772.337     343.663     285.707
  O     -772.672     342.515     284.932
  O     -771.717     340.580     283.483
  O     -770.213     342.400     284.436
  H     -770.092     342.566     283.483
  H     -773.201     344.284     285.816
  H     -771.562     344.212     285.214
  H     -771.996     343.354     286.673

 6  7  8  9  10  11  12  13  14  15  16  26  31  32  33  34  35 0
 6-311+G(2d,p)
 ****
 36  37 0
 6-311+G(2d,p)
 ****
 1  2  3  4  5  17  18  19  20  21  22  23  24  25 0
 3-21G
 ****
 27  28  29  30  38  39  40  41  42  43  44  45 0
 3-21G
 ****


