%nproc=1
%NoSave
%Mem=1900MB
#P OB98/GEN NMR

erre ene a

0 1
  C      337.912    -392.944      23.997
  O      337.968    -393.068      22.570
  P      338.181    -391.750      21.678
  C      336.794    -389.740      20.861
  O      336.765    -391.023      21.469
  C      336.017    -388.685      21.663
  O      334.582    -388.890      21.528
  C      336.336    -388.676      23.169
  O      336.277    -387.308      23.594
  C      335.180    -389.471      23.751
  O      335.019    -389.248      25.147
  C      334.025    -388.981      22.851
  N      332.875    -389.870      22.896
  C      331.640    -389.290      23.181
  O      331.561    -388.102      23.481
  N      330.517    -390.084      23.140
  C      330.645    -391.368      22.986
  N      329.512    -392.121      22.940
  C      331.956    -392.041      22.878
  C      333.021    -391.237      22.816
  O      338.982    -391.946      20.435
  O      338.935    -390.754      22.695
  H      334.909    -388.283      25.302
  H      339.569    -390.210      22.189
  H      332.028    -393.115      22.837
  H      334.023    -391.621      22.718
  H      333.711    -387.972      23.157
  H      335.362    -390.542      23.595
  H      337.326    -389.081      23.413
  H      336.248    -387.701      21.229
  H      328.620    -391.653      23.050
  H      336.379    -389.811      19.851
  H      329.535    -393.129      22.774
  H      337.849    -389.443      20.727
  P      337.401    -386.749      24.594
  C      337.386    -385.640      26.951
  O      336.707    -386.440      26.005
  O      337.650    -385.268      24.018
  O      338.695    -387.515      24.621
  H      338.556    -384.981      24.264
  H      336.670    -385.307      27.714
  H      337.827    -384.762      26.475
  H      338.173    -386.232      27.443
  H      337.767    -393.910      24.434
  H      337.098    -392.304      24.268
  H      338.829    -392.525      24.355

 3  4  5  6  7  8  9  10  11  12  13  23  27  28  29  30  32 0
 6-311+G(2d,p)
 ****
 34  35 0
 6-311+G(2d,p)
 ****
 1  2  14  15  16  17  18  19  20  21  22  24  25  26 0
 3-21G
 ****
 31  33  36  37  38  39  40  41  42  43  44  45  46 0
 3-21G
 ****


