%nproc=1
%NoSave
%Mem=1900MB
#P OB98/GEN NMR

erre ene a

0 1
  C      -50.885    -778.495     151.232
  O      -50.065    -778.654     150.095
  H      -51.925    -778.428     150.918
  H      -50.622    -777.573     151.764
  H      -50.768    -779.355     151.906
  P      -48.476    -778.657     150.344
  C      -46.708    -779.622     148.676
  O      -47.942    -779.814     149.362
  C      -46.423    -780.810     147.763
  O      -46.034    -781.964     148.533
  C      -47.627    -781.277     146.931
  O      -47.885    -780.438     145.812
  C      -47.134    -782.648     146.521
  O      -46.138    -782.528     145.495
  C      -46.518    -783.153     147.852
  N      -47.473    -783.885     148.685
  C      -47.618    -785.252     148.423
  O      -46.965    -785.793     147.528
  N      -48.531    -785.973     149.171
  C      -49.213    -785.385     150.103
  N      -50.102    -786.151     150.798
  C      -49.081    -783.950     150.416
  C      -48.204    -783.260     149.687
  O      -48.330    -779.339     151.794
  O      -47.786    -777.343     150.208
  H      -46.561    -782.059     144.750
  H      -47.376    -779.516     151.982
  H      -49.691    -783.510     151.193
  H      -48.048    -782.208     149.868
  H      -45.648    -783.796     147.662
  H      -47.932    -783.291     146.125
  H      -48.525    -781.381     147.546
  H      -45.574    -780.540     147.123
  H      -50.215    -787.115     150.519
  H      -45.907    -779.515     149.428
  H      -50.783    -785.762     151.438
  H      -46.746    -778.704     148.079
  P      -49.364    -780.495     145.187
  C      -50.860    -778.839     143.839
  O      -49.645    -779.052     144.542
  O      -50.304    -780.504     146.477
  O      -49.631    -781.666     144.283
  H      -51.111    -781.038     146.329
  H      -50.890    -777.833     143.475
  H      -51.687    -779.005     144.497
  H      -50.919    -779.518     143.014

 6  7  8  9  10  11  12  13  14  15  16  26  30  31  32  33  35 0
 6-311+G(2d,p)
 ****
 37  38 0
 6-311+G(2d,p)
 ****
 1  2  3  4  5  17  18  19  20  21  22  23  24  25 0
 3-21G
 ****
 27  28  29  34  36  39  40  41  42  43  44  45  46 0
 3-21G
 ****


