%nproc=1
%NoSave
%Mem=1900MB
#P OB98/GEN NMR

erre ene a

0 1
  C      -70.873     200.603       3.738
  O      -71.970     199.784       4.084
  H      -70.690     200.503       2.665
  H      -69.976     200.288       4.279
  H      -71.087     201.653       3.961
  P      -72.539     199.843       5.583
  C      -71.952     197.389       6.100
  O      -71.728     198.751       6.433
  C      -70.787     196.533       6.593
  O      -71.033     195.134       6.315
  C      -69.456     196.861       5.925
  O      -68.911     198.060       6.446
  C      -68.666     195.602       6.247
  O      -68.168     195.628       7.595
  C      -69.751     194.508       6.094
  N      -69.702     193.843       4.785
  C      -68.927     192.688       4.712
  O      -68.307     192.234       5.670
  N      -68.858     192.095       3.478
  C      -69.400     192.589       2.325
  O      -69.130     192.151       1.208
  C      -70.266     193.764       2.475
  C      -70.363     194.339       3.677
  O      -74.025     199.774       5.717
  O      -71.963     201.231       6.149
  H      -72.671     201.906       6.119
  H      -67.700     196.476       7.703
  H      -68.261     191.288       3.403
  H      -70.766     194.150       1.596
  H      -70.975     195.230       3.807
  H      -69.635     193.742       6.869
  H      -67.803     195.471       5.591
  H      -69.585     196.929       4.839
  H      -70.716     196.650       7.683
  H      -72.027     197.305       5.006
  H      -72.895     197.058       6.548
  P      -68.301     199.178       5.477
  C      -66.010     198.900       6.594
  O      -66.720     198.927       5.367
  O      -68.681     200.583       5.819
  O      -68.833     198.781       4.022
  H      -69.270     199.553       3.618
  H      -64.972     198.727       6.402
  H      -66.394     198.115       7.211
  H      -66.128     199.838       7.095

 6  7  8  9  10  11  12  13  14  15  16  27  31  32  33  34  35 0
 6-311+G(2d,p)
 ****
 36  37 0
 6-311+G(2d,p)
 ****
 1  2  3  4  5  17  18  19  20  21  22  23  24  25 0
 3-21G
 ****
 26  28  29  30  38  39  40  41  42  43  44  45 0
 3-21G
 ****


