%nproc=1
%NoSave
%Mem=1900MB
#P OB98/GEN NMR

erre ene a

0 1
  C      -79.407      51.188     -16.495
  O      -78.788      51.741     -15.351
  P      -78.401      50.828     -14.095
  C      -80.655      51.416     -13.025
  O      -79.758      50.370     -13.378
  C      -81.431      51.080     -11.753
  O      -82.390      50.029     -12.036
  C      -80.548      50.609     -10.587
  O      -81.108      51.155      -9.386
  C      -80.721      49.102     -10.615
  O      -80.417      48.497      -9.367
  C      -82.181      48.989     -11.061
  N      -82.499      47.677     -11.605
  C      -83.419      46.904     -10.896
  O      -83.825      47.281      -9.794
  N      -83.842      45.719     -11.446
  C      -83.253      45.263     -12.508
  N      -83.748      44.122     -13.059
  C      -82.103      45.939     -13.141
  C      -81.809      47.148     -12.672
  O      -77.382      51.414     -13.175
  O      -77.863      49.467     -14.748
  H      -76.981      49.264     -14.383
  H      -80.987      48.893      -8.674
  H      -81.565      45.459     -13.947
  H      -80.999      47.735     -13.088
  H      -82.858      49.196     -10.220
  H      -80.054      48.671     -11.372
  H      -79.509      50.932     -10.683
  H      -82.000      51.969     -11.457
  H      -84.564      43.709     -12.621
  H      -81.361      51.550     -13.847
  H      -83.575      43.871     -14.033
  H      -80.101      52.353     -12.904
  P      -80.119      51.449      -8.151
  C      -80.441      49.206      -6.886
  O      -79.568      50.043      -7.620
  O      -81.159      51.859      -6.998
  O      -79.119      52.541      -8.344
  H      -80.704      52.425      -6.348
  H      -79.880      48.329      -6.548
  H      -81.264      48.869      -7.521
  H      -80.832      49.729      -6.011
  H      -79.581      51.960     -17.215
  H      -80.340      50.744     -16.216
  H      -78.769      50.441     -16.920

 3  4  5  6  7  8  9  10  11  12  13  24  27  28  29  30  32 0
 6-311+G(2d,p)
 ****
 34  35 0
 6-311+G(2d,p)
 ****
 1  2  14  15  16  17  18  19  20  21  22  23  25  26 0
 3-21G
 ****
 31  33  36  37  38  39  40  41  42  43  44  45  46 0
 3-21G
 ****


