%nproc=1
%NoSave
%Mem=1900MB
#P OB98/GEN NMR

erre ene a

0 1
  C      258.725    -106.876     -73.853
  O      259.948    -107.261     -73.250
  P      261.100    -106.194     -72.938
  C      262.422    -104.524     -74.385
  O      261.654    -105.718     -74.372
  C      262.293    -103.788     -75.721
  O      260.942    -103.253     -75.848
  C      263.271    -102.625     -75.912
  O      263.591    -102.585     -77.310
  C      262.430    -101.418     -75.524
  O      262.954    -100.194     -76.021
  C      261.057    -101.831     -76.089
  N      259.969    -101.078     -75.482
  C      259.830     -99.745     -75.880
  O      260.660     -99.235     -76.646
  N      258.803     -98.996     -75.363
  C      258.036     -99.512     -74.446
  N      257.028     -98.732     -73.971
  C      258.224    -100.875     -73.907
  C      259.190    -101.598     -74.473
  O      262.147    -106.651     -71.978
  O      260.299    -104.902     -72.436
  H      262.356     -99.466     -75.740
  H      259.999    -105.025     -71.499
  H      257.600    -101.243     -73.104
  H      259.403    -102.609     -74.147
  H      261.032    -101.679     -77.180
  H      262.380    -101.340     -74.430
  H      264.180    -102.714     -75.308
  H      262.425    -104.526     -76.527
  H      256.925     -97.813     -74.384
  H      263.471    -104.796     -74.240
  H      256.332     -99.065     -73.318
  H      262.124    -103.878     -73.558
  P      264.653    -101.539     -77.895
  C      264.982     -98.997     -77.847
  O      264.120    -100.074     -77.523
  O      265.004    -101.730     -79.338
  O      265.940    -101.710     -76.950
  H      266.717    -101.300     -77.385
  H      264.411     -98.062     -77.818
  H      265.400     -99.122     -78.854
  H      265.795     -98.949     -77.117
  H      258.100    -107.736     -73.972
  H      258.921    -106.442     -74.811
  H      258.231    -106.159     -73.231

 3  4  5  6  7  8  9  10  11  12  13  23  27  28  29  30  32 0
 6-311+G(2d,p)
 ****
 34  35 0
 6-311+G(2d,p)
 ****
 1  2  14  15  16  17  18  19  20  21  22  24  25  26 0
 3-21G
 ****
 31  33  36  37  38  39  40  41  42  43  44  45  46 0
 3-21G
 ****


