%nproc=1
%NoSave
%Mem=1900MB
#P OB98/GEN NMR

erre ene a

0 1
  C       47.349     -33.091     -32.304
  O       46.387     -32.452     -33.125
  P       45.034     -31.944     -32.422
  C       43.599     -33.992     -33.125
  O       44.191     -33.259     -32.058
  C       42.112     -34.242     -32.869
  O       41.972     -35.083     -31.698
  C       41.294     -32.970     -32.640
  O       40.014     -33.158     -33.243
  C       41.127     -32.925     -31.133
  O       39.977     -32.172     -30.752
  C       41.064     -34.422     -30.793
  N       41.410     -34.687     -29.400
  C       40.510     -34.238     -28.430
  O       39.521     -33.584     -28.762
  N       40.777     -34.498     -27.109
  C       41.899     -35.059     -26.779
  N       42.117     -35.297     -25.458
  C       42.932     -35.434     -27.765
  C       42.616     -35.242     -29.043
  O       44.216     -31.307     -33.639
  O       45.240     -30.972     -31.306
  H       39.960     -32.116     -29.771
  H       43.667     -30.559     -33.336
  H       43.866     -35.865     -27.434
  H       43.302     -35.509     -29.836
  H       40.058     -34.819     -30.983
  H       42.010     -32.463     -30.674
  H       41.771     -32.078     -33.055
  H       41.709     -34.804     -33.721
  H       41.400     -35.016     -24.802
  H       44.098     -34.960     -33.211
  H       42.962     -35.728     -25.108
  H       43.744     -33.447     -34.062
  P       39.420     -31.954     -34.120
  C       38.185     -30.884     -32.140
  O       39.227     -30.745     -33.086
  O       37.903     -32.435     -34.335
  O       40.074     -31.636     -35.422
  H       37.441     -31.808     -34.919
  H       38.254     -30.064     -31.420
  H       38.277     -31.832     -31.605
  H       37.215     -30.829     -32.644
  H       48.193     -33.375     -32.898
  H       46.916     -33.963     -31.860
  H       47.665     -32.418     -31.535

 3  4  5  6  7  8  9  10  11  12  13  21  23  27  28  29  30  32 0
 6-311+G(2d,p)
 ****
 34  35 0
 6-311+G(2d,p)
 ****
 1  2  14  15  16  17  18  19  20  22  24  25  26 0
 3-21G
 ****
 31  33  36  37  38  39  40  41  42  43  44  45  46 0
 3-21G
 ****


