%nproc=1
%NoSave
%Mem=1900MB
#P OB98/GEN NMR

erre ene a

0 1
  C      -69.110     -58.697      66.768
  O      -68.547     -59.388      67.865
  P      -67.450     -60.538      67.655
  C      -69.333     -62.245      67.256
  O      -68.153     -61.652      66.734
  C      -69.046     -63.023      68.540
  O      -70.297     -63.354      69.204
  C      -68.275     -64.339      68.333
  O      -67.441     -64.503      69.487
  C      -69.385     -65.371      68.327
  O      -68.909     -66.687      68.584
  C      -70.329     -64.788      69.386
  N      -71.681     -65.326      69.276
  C      -71.824     -66.709      69.437
  O      -70.828     -67.424      69.590
  N      -73.078     -67.257      69.373
  C      -74.090     -66.508      69.060
  N      -75.316     -67.106      69.017
  C      -73.970     -65.066      68.761
  C      -72.744     -64.544      68.895
  O      -66.830     -61.061      68.908
  O      -66.395     -59.877      66.650
  H      -68.546     -66.713      69.496
  H      -65.805     -59.244      67.131
  H      -74.826     -64.493      68.450
  H      -72.558     -63.500      68.695
  H      -69.952     -64.995      70.396
  H      -69.875     -65.380      67.343
  H      -67.674     -64.354      67.417
  H      -68.484     -62.365      69.217
  H      -75.355     -68.091      69.247
  H      -69.725     -62.938      66.505
  H      -76.172     -66.597      68.869
  H      -70.095     -61.477      67.430
  P      -65.859     -64.255      69.413
  C      -65.435     -66.737      69.870
  O      -65.184     -65.647      69.003
  O      -65.264     -63.597      70.617
  O      -65.660     -63.352      68.100
  H      -64.773     -62.940      68.122
  H      -65.176     -67.669      69.354
  H      -66.493     -66.775      70.156
  H      -64.820     -66.642      70.769
  H      -69.816     -57.976      67.125
  H      -69.606     -59.393      66.124
  H      -68.335     -58.199      66.224

 3  4  5  6  7  8  9  10  11  12  13  23  27  28  29  30  32 0
 6-311+G(2d,p)
 ****
 34  35 0
 6-311+G(2d,p)
 ****
 1  2  14  15  16  17  18  19  20  21  22  24  25  26 0
 3-21G
 ****
 31  33  36  37  38  39  40  41  42  43  44  45  46 0
 3-21G
 ****


