%nproc=1
%NoSave
%Mem=1900MB
#P OB98/GEN NMR

erre ene a

0 1
  C     -471.811    -748.714    -893.790
  O     -470.478    -748.199    -893.610
  P     -469.747    -748.359    -892.190
  C     -467.772    -749.971    -892.760
  O     -469.040    -749.793    -892.130
  C     -467.904    -750.923    -893.960
  O     -468.803    -750.377    -894.960
  C     -466.612    -751.195    -894.690
  O     -465.780    -752.107    -893.990
  C     -467.126    -751.742    -896.020
  O     -467.431    -753.146    -895.920
  C     -468.399    -750.916    -896.230
  N     -468.235    -749.858    -897.220
  C     -469.314    -749.642    -898.080
  O     -470.336    -750.330    -898.070
  N     -469.150    -748.629    -899.000
  C     -468.033    -747.866    -899.170
  O     -467.945    -746.983    -900.000
  C     -466.907    -748.190    -898.270
  C     -467.045    -749.148    -897.360
  O     -470.998    -748.557    -891.200
  O     -468.916    -747.187    -891.760
  H     -467.930    -753.382    -896.730
  H     -470.759    -748.242    -890.310
  H     -469.931    -748.441    -899.600
  H     -465.987    -747.622    -898.390
  H     -466.229    -749.406    -896.700
  H     -469.222    -751.559    -896.540
  H     -466.395    -751.630    -896.820
  H     -466.092    -750.249    -894.870
  H     -468.350    -751.868    -893.590
  H     -467.080    -750.403    -892.040
  H     -467.390    -749.003    -893.080
  P     -465.149    -751.602    -892.600
  C     -466.275    -753.262    -890.930
  O     -466.235    -751.961    -891.480
  O     -465.268    -750.013    -892.780
  O     -463.757    -752.096    -892.360
  H     -466.041    -749.752    -893.300
  H     -465.274    -753.704    -890.870
  H     -466.931    -753.896    -891.540
  H     -466.702    -753.194    -889.930
  H     -472.136    -748.519    -894.791
  H     -472.474    -748.236    -893.100
  H     -471.813    -749.769    -893.613

 3  4  5  6  7  8  9  10  11  12  13  23  28  29  30  31  32 0
 6-311+G(2d,p)
 ****
 33  34 0
 6-311+G(2d,p)
 ****
 1  2  14  15  16  17  18  19  20  21  22  24  25  26 0
 3-21G
 ****
 27  35  36  37  38  39  40  41  42  43  44  45 0
 3-21G
 ****


