%nproc=1
%NoSave
%Mem=1900MB
#P OB98/GEN NMR

erre ene a

0 1
  C      -94.249     179.504    -342.876
  O      -94.170     178.612    -341.777
  P      -95.197     178.719    -340.545
  C      -95.904     176.237    -340.428
  O      -95.141     177.287    -339.833
  C      -95.391     174.875    -339.937
  O      -93.974     174.770    -340.206
  C      -95.542     174.648    -338.433
  O      -96.888     174.337    -338.108
  C      -94.528     173.532    -338.209
  O      -95.087     172.259    -338.609
  C      -93.392     173.926    -339.180
  N      -92.290     174.611    -338.500
  C      -91.633     173.875    -337.508
  O      -91.964     172.724    -337.236
  N      -90.565     174.463    -336.864
  C      -90.209     175.684    -337.159
  N      -89.110     176.179    -336.536
  C      -90.913     176.493    -338.169
  C      -91.929     175.911    -338.793
  O      -96.573     179.186    -340.912
  O      -94.457     179.663    -339.490
  H      -95.841     172.090    -338.019
  H      -94.638     180.628    -339.618
  H      -90.585     177.509    -338.375
  H      -92.477     176.434    -339.560
  H      -93.009     173.044    -339.695
  H      -94.207     173.443    -337.171
  H      -95.238     175.544    -337.879
  H      -95.906     174.092    -340.501
  H      -88.559     175.525    -335.987
  H      -95.789     176.286    -341.509
  H      -88.600     176.974    -336.904
  H      -96.958     176.364    -340.174
  P      -97.314     174.418    -336.560
  C      -99.888     174.827    -336.643
  O      -98.838     173.887    -336.504
  O      -97.435     175.993    -336.292
  O      -96.363     173.750    -335.621
  H      -96.636     176.316    -335.827
  H     -100.815     174.283    -336.819
  H      -99.690     175.488    -337.487
  H      -99.981     175.418    -335.722
  H      -93.482     179.267    -343.584
  H      -94.117     180.508    -342.531
  H      -95.207     179.410    -343.343

 3  4  5  6  7  8  9  10  11  12  13  23  27  28  29  30  32 0
 6-311+G(2d,p)
 ****
 34  35 0
 6-311+G(2d,p)
 ****
 1  2  14  15  16  17  18  19  20  21  22  24  25  26 0
 3-21G
 ****
 31  33  36  37  38  39  40  41  42  43  44  45  46 0
 3-21G
 ****


