%nproc=1
%NoSave
%Mem=1900MB
#P OB98/GEN NMR

erre ene a

0 1
  C     -551.955     498.232    -919.692
  O     -551.476     498.249    -921.023
  H     -551.678     497.278    -919.229
  H     -553.047     498.308    -919.670
  H     -551.511     499.049    -919.116
  P     -551.895     499.479    -921.969
  C     -549.542     500.087    -922.869
  O     -550.810     499.501    -923.146
  C     -548.563     499.784    -923.996
  O     -548.244     498.374    -924.017
  C     -549.122     500.097    -925.386
  O     -549.105     501.498    -925.621
  C     -548.195     499.274    -926.262
  O     -546.946     499.929    -926.470
  C     -548.025     497.992    -925.403
  N     -548.915     496.911    -925.812
  C     -549.159     496.799    -927.177
  O     -548.627     497.594    -927.978
  N     -550.012     495.815    -927.608
  C     -550.548     494.996    -926.762
  N     -551.377     494.047    -927.259
  C     -550.316     495.067    -925.305
  C     -549.482     496.043    -924.902
  O     -552.112     500.802    -921.294
  O     -553.221     498.951    -922.697
  H     -546.504     499.953    -925.599
  H     -554.017     499.184    -922.179
  H     -550.770     494.374    -924.632
  H     -549.249     496.166    -923.840
  H     -546.980     497.636    -925.465
  H     -548.646     499.084    -927.237
  H     -550.134     499.704    -925.480
  H     -547.628     500.340    -923.811
  H     -551.529     494.034    -928.260
  H     -549.194     499.656    -921.928
  H     -551.787     493.296    -926.704
  H     -549.638     501.175    -922.734
  P     -550.463     502.275    -925.975
  C     -549.634     504.224    -924.486
  O     -550.116     503.841    -925.777
  O     -551.682     501.801    -925.261
  O     -550.558     502.139    -927.575
  H     -550.834     501.223    -927.825
  H     -549.440     505.276    -924.475
  H     -548.731     503.693    -924.270
  H     -550.371     503.990    -923.746

 6  7  8  9  10  11  12  13  14  15  16  26  30  31  32  33  35 0
 6-311+G(2d,p)
 ****
 37  38 0
 6-311+G(2d,p)
 ****
 1  2  3  4  5  17  18  19  20  21  22  23  24  25 0
 3-21G
 ****
 27  28  29  34  36  39  40  41  42  43  44  45  46 0
 3-21G
 ****


