%nproc=1
%NoSave
%Mem=1900MB
#P OB98/GEN NMR

erre ene a

0 1
  C      -63.287    -155.259    -352.193
  O      -63.096    -155.702    -350.851
  P      -62.145    -154.851    -349.876
  C      -63.280    -155.920    -347.836
  O      -62.047    -155.604    -348.462
  C      -63.743    -157.351    -348.141
  O      -62.657    -158.298    -347.957
  C      -64.916    -157.836    -347.275
  O      -65.732    -158.670    -348.105
  C      -64.217    -158.653    -346.209
  O      -65.100    -159.539    -345.537
  C      -63.118    -159.315    -347.045
  N      -62.034    -159.841    -346.231
  C      -61.734    -161.198    -346.367
  O      -62.441    -161.917    -347.075
  N      -60.660    -161.705    -345.675
  C      -60.046    -160.957    -344.812
  N      -58.977    -161.489    -344.161
  C      -60.453    -159.571    -344.511
  C      -61.426    -159.077    -345.268
  O      -62.455    -153.393    -349.793
  O      -60.688    -155.093    -350.505
  H      -64.652    -159.891    -344.739
  H      -60.157    -154.279    -350.391
  H      -59.963    -159.015    -343.724
  H      -61.791    -158.069    -345.129
  H      -63.529    -160.133    -347.651
  H      -63.777    -157.983    -345.460
  H      -65.529    -157.019    -346.879
  H      -64.032    -157.392    -349.200
  H      -58.723    -162.449    -344.361
  H      -64.046    -155.217    -348.175
  H      -58.412    -160.956    -343.513
  H      -63.183    -155.762    -346.755
  P      -66.791    -157.986    -349.099
  C      -67.146    -159.633    -351.076
  O      -67.605    -159.151    -349.832
  O      -65.831    -157.459    -350.279
  O      -67.580    -156.849    -348.538
  H      -66.267    -156.710    -350.727
  H      -67.636    -160.589    -351.286
  H      -66.065    -159.796    -351.064
  H      -67.405    -158.923    -351.867
  H      -63.943    -155.934    -352.701
  H      -62.344    -155.231    -352.697
  H      -63.718    -154.279    -352.187

 3  4  5  6  7  8  9  10  11  12  13  23  27  28  29  30  32 0
 6-311+G(2d,p)
 ****
 34  35 0
 6-311+G(2d,p)
 ****
 1  2  14  15  16  17  18  19  20  21  22  24  25  26 0
 3-21G
 ****
 31  33  36  37  38  39  40  41  42  43  44  45  46 0
 3-21G
 ****


