%nproc=1
%NoSave
%Mem=1900MB
#P OB98/GEN NMR

erre ene a

0 1
  C      399.219      33.601     630.236
  O      399.080      33.946     631.607
  P      399.045      35.521     631.962
  C      401.380      36.189     631.014
  O      400.568      35.967     632.154
  C      402.517      37.157     631.366
  O      401.991      38.487     631.573
  C      403.270      36.788     632.645
  O      404.238      35.793     632.382
  C      403.863      38.138     633.038
  O      405.062      38.416     632.280
  C      402.735      39.110     632.658
  N      402.118      41.976     636.780
  C      403.239      41.775     635.996
  N      404.340      42.486     636.331
  N      403.274      40.970     634.968
  C      402.109      40.315     634.755
  C      400.929      40.415     635.482
  C      400.890      41.353     636.571
  O      399.898      41.633     637.236
  N      399.963      39.580     634.976
  C      400.547      39.005     633.940
  N      401.836      39.433     633.754
  O      398.439      35.536     633.442
  O      398.260      36.364     631.007
  H      405.804      37.908     632.660
  H      397.485      35.745     633.426
  H      402.149      42.622     637.545
  H      400.066      38.295     633.284
  H      403.123      40.063     632.274
  H      404.151      38.171     634.098
  H      404.392      43.104     637.122
  H      402.572      36.456     633.423
  H      405.172      42.354     635.767
  H      403.203      37.195     630.514
  H      400.774      36.626     630.215
  H      401.787      35.228     630.668
  P      404.029      34.353     633.056
  C      404.190      34.453     635.644
  O      404.874      34.335     634.411
  O      404.833      33.370     632.085
  O      402.603      33.938     633.191
  H      404.366      32.511     632.025
  H      404.761      33.922     636.418
  H      403.180      34.026     635.596
  H      404.122      35.512     635.924
  H      399.228      32.536     630.135
  H      400.136      34.003     629.858
  H      398.397      34.004     629.682

 3  4  5  6  7  8  9  10  11  12  23  26  30  31 0
 6-311+G(2d,p)
 ****
 33  35  36  37  38 0
 6-311+G(2d,p)
 ****
 1  2  13  14  15  16  17  18  19  20  21  22  24  25 0
 3-21G
 ****
 27  28  29  32  34  39  40  41  42  43  44  45  46  47  48  49 0
 3-21G
 ****


