%nproc=1
%NoSave
%Mem=1900MB
#P OB98/GEN NMR

erre ene a

0 1
  C       85.289      57.013     369.169
  O       86.319      56.674     370.075
  H       84.447      57.419     369.734
  H       84.955      56.120     368.638
  H       85.625      57.767     368.452
  P       87.774      56.329     369.498
  C       88.660      58.679     370.086
  O       88.430      57.725     369.057
  C       90.136      58.680     370.506
  O       90.923      59.317     369.460
  C       90.410      59.445     371.814
  O       91.526      58.811     372.453
  C       90.807      60.812     371.294
  O       91.482      61.564     372.276
  C       91.625      60.422     370.060
  N       91.795      61.535     369.131
  C       92.336      62.704     369.649
  O       92.634      62.837     370.838
  N       92.484      63.744     368.774
  C       92.094      63.745     367.467
  O       92.223      64.717     366.733
  C       91.486      62.497     366.977
  C       91.370      61.462     367.815
  O       87.824      55.260     368.458
  O       88.630      55.938     370.796
  H       91.009      61.503     373.136
  H       89.318      55.288     370.559
  H       92.886      64.594     369.136
  H       91.160      62.467     365.949
  H       90.928      60.527     367.487
  H       92.623      60.070     370.352
  H       89.920      61.383     370.996
  H       89.549      59.473     372.484
  H       90.481      57.642     370.578
  H       88.032      58.412     370.941
  H       88.375      59.675     369.730
  P       91.581      58.573     374.039
  C       90.188      56.435     374.427
  O       90.216      57.862     374.498
  O       91.932      59.790     374.831
  O       92.682      57.428     374.242
  H       93.095      57.518     375.122
  H       89.234      56.080     374.756
  H       90.954      56.032     375.055
  H       90.355      56.125     373.417

 6  7  8  9  10  11  12  13  14  15  16  26  31  32  33  34  35 0
 6-311+G(2d,p)
 ****
 36  37 0
 6-311+G(2d,p)
 ****
 1  2  3  4  5  17  18  19  20  21  22  23  24  25 0
 3-21G
 ****
 27  28  29  30  38  39  40  41  42  43  44  45 0
 3-21G
 ****


