%nproc=1
%NoSave
%Mem=1900MB
#P OB98/GEN NMR

erre ene a

0 1
  C      712.832     384.255     420.032
  O      712.779     382.898     419.624
  P      711.477     382.051     420.012
  C      712.451     380.064     421.363
  O      711.934     380.520     420.126
  C      713.545     379.014     421.148
  O      712.947     377.837     420.540
  C      714.700     379.471     420.246
  O      715.884     378.854     420.748
  C      714.299     378.883     418.903
  O      715.355     378.817     417.966
  C      713.719     377.545     419.358
  N      713.672     375.539     414.649
  C      714.681     376.021     415.418
  N      714.615     376.540     416.663
  C      713.352     376.502     417.120
  C      712.224     376.066     416.452
  C      712.417     375.556     415.153
  N      711.389     375.072     414.378
  N      711.095     376.218     417.238
  C      711.544     376.748     418.357
  N      712.897     376.923     418.339
  O      710.613     382.078     418.665
  O      710.704     382.582     421.185
  H      715.617     379.717     417.682
  H      709.661     382.167     418.857
  H      715.669     375.995     414.961
  H      710.921     377.029     419.195
  H      714.509     376.829     419.632
  H      713.518     379.510     418.458
  H      714.834     380.558     420.229
  H      713.934     378.714     422.133
  H      711.647     379.608     421.950
  H      711.595     374.924     413.398
  H      710.441     375.283     414.681
  H      712.833     380.916     421.938
  P      717.093     379.781     421.259
  C      718.345     378.815     419.236
  O      718.398     379.098     420.623
  O      717.200     379.322     422.788
  O      716.913     381.246     421.056
  H      717.255     378.349     422.874
  H      719.326     378.444     418.913
  H      718.106     379.723     418.668
  H      717.601     378.036     419.037
  H      713.753     384.690     419.705
  H      712.771     384.309     421.099
  H      712.012     384.790     419.600

 3  4  5  6  7  8  9  10  11  12  22  25  29  30  31  32 0
 6-311+G(2d,p)
 ****
 33  36  37 0
 6-311+G(2d,p)
 ****
 1  2  13  14  15  16  17  18  19  20  21  23  24  26 0
 3-21G
 ****
 27  28  34  35  38  39  40  41  42  43  44  45  46  47  48 0
 3-21G
 ****


