%nproc=1
%NoSave
%Mem=1900MB
#P OB98/GEN NMR

erre ene a

0 1
  C      256.739    -949.464     155.859
  O      257.847    -950.126     155.242
  P      258.931    -949.223     154.468
  C      257.879    -949.671     152.128
  O      258.262    -948.707     153.107
  C      257.339    -948.966     150.876
  O      256.066    -948.342     151.124
  C      258.249    -947.864     150.347
  O      259.296    -948.395     149.540
  C      257.287    -947.072     149.487
  O      257.104    -947.721     148.224
  C      255.987    -947.142     150.316
  N      255.490    -942.106     150.422
  C      255.656    -942.966     149.350
  N      255.695    -942.392     148.116
  N      255.782    -944.260     149.471
  C      255.708    -944.688     150.747
  C      255.550    -943.941     151.887
  C      255.427    -942.509     151.747
  O      255.292    -941.694     152.658
  N      255.538    -944.732     153.012
  C      255.669    -945.965     152.552
  N      255.799    -945.981     151.180
  O      259.989    -950.312     153.958
  O      259.572    -948.180     155.320
  H      257.993    -947.909     147.858
  H      260.865    -949.901     153.866
  H      255.398    -941.119     150.279
  H      255.681    -946.862     153.154
  H      255.103    -947.226     149.678
  H      257.649    -946.062     149.282
  H      255.546    -941.412     147.949
  H      258.640    -947.246     151.174
  H      255.781    -943.011     147.318
  H      257.205    -949.735     150.086
  H      257.121    -950.349     152.536
  H      258.744    -950.302     151.901
  P      260.770    -948.478     150.182
  C      261.808    -946.807     148.467
  O      261.484    -947.093     149.821
  O      261.502    -949.548     149.245
  O      260.813    -948.886     151.615
  H      262.171    -950.037     149.753
  H      262.138    -945.778     148.392
  H      260.937    -946.961     147.823
  H      262.625    -947.467     148.137
  H      256.109    -950.188     156.331
  H      256.180    -948.935     155.115
  H      257.100    -948.773     156.592

 3  4  5  6  7  8  9  10  11  12  23  26  30  31 0
 6-311+G(2d,p)
 ****
 33  35  36  37  38 0
 6-311+G(2d,p)
 ****
 1  2  13  14  15  16  17  18  19  20  21  22  24  25 0
 3-21G
 ****
 27  28  29  32  34  39  40  41  42  43  44  45  46  47  48  49 0
 3-21G
 ****


