%nproc=1
%NoSave
%Mem=1900MB
#P OB98/GEN NMR

erre ene a

0 1
  C       26.210    -221.987     -26.853
  O       26.676    -223.022     -27.696
  H       25.726    -221.207     -27.445
  H       25.478    -222.403     -26.154
  H       27.041    -221.561     -26.283
  P       27.739    -222.610     -28.825
  C       26.045    -221.092     -30.091
  O       26.859    -222.257     -30.122
  C       25.601    -220.750     -31.508
  O       24.660    -219.653     -31.484
  C       26.741    -220.298     -32.417
  O       27.464    -221.386     -32.966
  C       25.966    -219.553     -33.491
  O       25.346    -220.494     -34.386
  C       24.899    -218.827     -32.656
  N       23.913    -213.818     -33.036
  C       23.287    -214.902     -33.546
  N       23.601    -216.203     -33.380
  C       24.676    -216.337     -32.588
  C       25.412    -215.326     -31.991
  C       24.996    -214.009     -32.247
  N       25.649    -212.900     -31.756
  N       26.463    -215.856     -31.266
  C       26.347    -217.161     -31.408
  N       25.301    -217.499     -32.225
  O       28.428    -223.999     -29.226
  O       28.725    -221.557     -28.442
  H       26.053    -221.077     -34.721
  H       29.241    -223.839     -29.741
  H       22.424    -214.695     -34.172
  H       26.997    -217.897     -30.953
  H       23.947    -218.722     -33.190
  H       26.603    -218.905     -34.098
  H       27.407    -219.596     -31.906
  H       25.086    -221.623     -31.929
  H       26.626    -220.262     -29.675
  H       25.365    -212.002     -32.114
  H       26.537    -213.027     -31.291
  H       25.172    -221.275     -29.457
  P       29.034    -221.173     -33.232
  C       28.646    -220.328     -35.658
  O       29.248    -221.306     -34.818
  O       29.681    -222.519     -32.658
  O       29.613    -219.951     -32.596
  H       30.571    -222.351     -32.294
  H       28.874    -220.546     -36.680
  H       29.026    -219.360     -35.407
  H       27.585    -220.342     -35.519

 6  7  8  9  10  11  12  13  14  15  25  28  32  33  34  35 0
 6-311+G(2d,p)
 ****
 36  39  40 0
 6-311+G(2d,p)
 ****
 1  2  3  4  5  16  17  18  19  20  21  22  23  24 0
 3-21G
 ****
 26  27  29  30  31  37  38  41  42  43  44  45  46  47 0
 3-21G
 ****
 48 0
 3-21G
 ****


