%nproc=1
%NoSave
%Mem=1900MB
#P OB98/GEN NMR

erre ene a

0 1
  C      -36.793    -178.071     130.853
  O      -37.098    -179.280     130.183
  H      -36.937    -178.220     131.927
  H      -37.461    -177.275     130.514
  H      -35.753    -177.792     130.671
  P      -36.923    -179.276     128.587
  C      -39.172    -180.545     128.782
  O      -37.945    -180.402     128.077
  C      -39.695    -181.972     128.657
  O      -40.888    -182.145     129.444
  C      -40.072    -182.382     127.240
  O      -38.922    -182.757     126.498
  C      -40.976    -183.574     127.518
  O      -40.172    -184.738     127.800
  C      -41.726    -183.137     128.791
  N      -46.657    -184.135     127.774
  C      -45.561    -184.925     127.770
  N      -44.278    -184.582     128.007
  C      -44.175    -183.271     128.274
  C      -45.203    -182.341     128.315
  C      -46.500    -182.821     128.059
  N      -47.616    -182.013     128.075
  N      -44.717    -181.087     128.620
  C      -43.427    -181.267     128.812
  N      -43.042    -182.565     128.579
  O      -35.523    -179.377     128.090
  O      -37.686    -177.922     128.201
  H      -39.522    -184.487     128.483
  H      -38.478    -177.805     128.755
  H      -45.740    -185.973     127.546
  H      -42.732    -180.500     129.135
  H      -41.857    -183.969     129.490
  H      -41.609    -183.825     126.666
  H      -40.656    -181.602     126.738
  H      -38.933    -182.647     129.070
  H      -39.917    -179.839     128.396
  H      -48.473    -182.399     127.715
  H      -47.479    -181.017     128.164
  H      -38.977    -180.303     129.831
  P      -38.815    -182.423     124.934
  C      -38.806    -184.938     124.402
  O      -38.129    -183.696     124.240
  O      -38.170    -181.118     124.611
  O      -40.321    -182.488     124.403
  H      -40.478    -181.791     123.737
  H      -38.260    -185.710     123.900
  H      -39.788    -184.866     123.984
  H      -38.878    -185.172     125.444

 6  7  8  9  10  11  12  13  14  15  25  28  32  33  34  35 0
 6-311+G(2d,p)
 ****
 36  39  40 0
 6-311+G(2d,p)
 ****
 1  2  3  4  5  16  17  18  19  20  21  22  23  24 0
 3-21G
 ****
 26  27  29  30  31  37  38  41  42  43  44  45  46  47 0
 3-21G
 ****
 48 0
 3-21G
 ****


