%nproc=1
%NoSave
%Mem=1900MB
#P OB98/GEN NMR

erre ene a

0 1
  C      322.948    -329.757    -455.693
  O      324.321    -329.971    -455.967
  H      322.353    -330.324    -456.412
  H      322.704    -328.693    -455.798
  H      322.711    -330.096    -454.682
  P      325.372    -329.173    -455.054
  C      326.934    -331.215    -455.281
  O      326.801    -329.804    -455.441
  C      327.961    -331.766    -456.269
  O      327.467    -331.546    -457.619
  C      329.341    -331.101    -456.166
  O      330.356    -332.076    -456.418
  C      329.328    -330.092    -457.300
  O      330.638    -329.727    -457.721
  C      328.495    -330.833    -458.346
  N      329.297    -328.430    -462.760
  C      329.981    -329.409    -462.128
  N      329.683    -330.009    -460.958
  C      328.513    -329.544    -460.466
  C      327.709    -328.552    -461.003
  C      328.154    -327.966    -462.207
  N      327.484    -326.952    -462.846
  N      326.618    -328.322    -460.183
  C      326.759    -329.168    -459.180
  N      327.900    -329.913    -459.299
  O      325.066    -329.141    -453.595
  O      325.423    -327.745    -455.781
  H      330.562    -329.001    -458.375
  H      325.511    -327.839    -456.749
  H      330.897    -329.743    -462.620
  H      326.073    -329.262    -458.339
  H      329.088    -331.564    -458.917
  H      328.813    -329.176    -456.975
  H      329.517    -330.628    -455.202
  H      328.037    -332.855    -456.135
  H      325.964    -331.706    -455.444
  H      327.873    -326.599    -463.708
  H      326.619    -326.596    -462.452
  H      327.256    -331.408    -454.248
  P      330.782    -333.088    -455.247
  C      330.709    -335.316    -456.534
  O      331.532    -334.350    -455.901
  O      329.706    -333.419    -454.264
  O      331.990    -332.297    -454.534
  H      331.901    -332.396    -453.560
  H      331.319    -336.102    -456.928
  H      330.165    -334.854    -457.331
  H      330.022    -335.721    -455.821

 6  7  8  9  10  11  12  13  14  15  25  28  32  33  34  35 0
 6-311+G(2d,p)
 ****
 36  39  40 0
 6-311+G(2d,p)
 ****
 1  2  3  4  5  16  17  18  19  20  21  22  23  24 0
 3-21G
 ****
 26  27  29  30  31  37  38  41  42  43  44  45  46  47 0
 3-21G
 ****
 48 0
 3-21G
 ****


