%nproc=1
%NoSave
%Mem=1900MB
#P OB98/GEN NMR

erre ene a

0 1
  C      -12.297     435.796    -153.703
  O      -13.197     435.900    -154.791
  P      -14.581     435.102    -154.720
  C      -13.659     432.973    -155.902
  O      -14.236     433.531    -154.731
  C      -14.061     431.505    -156.049
  O      -13.417     430.719    -154.993
  C      -15.574     431.254    -155.944
  O      -15.890     430.158    -156.813
  C      -15.738     430.823    -154.494
  O      -16.946     430.114    -154.257
  C      -14.461     429.986    -154.324
  N      -14.130     429.739    -152.917
  C      -14.065     428.412    -152.503
  O      -14.267     427.454    -153.233
  N      -13.811     428.222    -151.159
  C      -13.715     429.204    -150.212
  O      -13.608     428.957    -149.016
  C      -13.793     430.584    -150.713
  C      -13.992     430.790    -152.018
  O      -15.235     435.357    -156.162
  O      -15.489     435.525    -153.614
  H      -17.112     430.141    -153.294
  H      -15.910     436.061    -156.103
  H      -13.750     427.268    -150.840
  H      -13.706     431.383    -149.987
  H      -14.083     431.795    -152.414
  H      -14.562     429.025    -154.846
  H      -15.723     431.703    -153.848
  H      -16.178     432.129    -156.194
  H      -13.677     431.128    -157.005
  H      -12.572     433.047    -155.831
  H      -13.975     433.544    -156.781
  P      -17.210     430.281    -157.728
  C      -18.655     429.198    -155.835
  O      -18.464     430.271    -156.727
  O      -17.240     428.823    -158.397
  O      -17.152     431.397    -158.721
  H      -17.042     428.115    -157.765
  H      -17.702     428.798    -155.479
  H      -19.212     428.405    -156.332
  H      -19.227     429.552    -154.975
  H      -11.426     436.384    -153.903
  H      -12.014     434.773    -153.571
  H      -12.771     436.153    -152.813

 3  4  5  6  7  8  9  10  11  12  13  23  28  29  30  31  32 0
 6-311+G(2d,p)
 ****
 33  34 0
 6-311+G(2d,p)
 ****
 1  2  14  15  16  17  18  19  20  21  22  24  25  26 0
 3-21G
 ****
 27  35  36  37  38  39  40  41  42  43  44  45 0
 3-21G
 ****


