%nproc=1
%NoSave
%Mem=1900MB
#P OB98/GEN NMR

erre ene a

0 1
  C     -221.841    -100.049    -197.431
  O     -222.259    -100.801    -198.553
  H     -222.352     -99.081    -197.448
  H     -220.763     -99.874    -197.465
  H     -222.104    -100.567    -196.504
  P     -221.645    -102.266    -198.755
  C     -223.703    -103.715    -199.333
  O     -222.583    -102.994    -199.834
  C     -224.807    -103.756    -200.383
  O     -225.376    -102.445    -200.570
  C     -224.337    -104.226    -201.760
  O     -224.257    -105.639    -201.803
  C     -225.447    -103.661    -202.637
  O     -226.621    -104.487    -202.520
  C     -225.696    -102.290    -201.983
  N     -225.562     -98.390    -205.222
  C     -226.558     -99.319    -204.991
  N     -227.663     -99.220    -205.766
  N     -226.474    -100.271    -204.099
  C     -225.288    -100.287    -203.450
  C     -224.220     -99.438    -203.600
  C     -224.347     -98.351    -204.550
  O     -223.495     -97.497    -204.772
  N     -223.157     -99.809    -202.812
  C     -223.600    -100.865    -202.158
  N     -224.883    -101.207    -202.521
  O     -221.420    -103.070    -197.508
  O     -220.286    -102.010    -199.560
  H     -226.383    -105.361    -202.882
  H     -219.527    -101.915    -198.952
  H     -225.682     -97.690    -205.935
  H     -223.037    -101.416    -201.412
  H     -226.742    -101.979    -202.047
  H     -225.184    -103.618    -203.691
  H     -227.657     -98.702    -206.637
  H     -223.393    -103.745    -202.052
  H     -228.381     -99.920    -205.647
  H     -225.611    -104.403    -200.002
  H     -224.052    -103.200    -198.434
  H     -223.411    -104.732    -199.065
  P     -222.840    -106.394    -201.715
  C     -223.296    -108.401    -200.153
  O     -223.207    -107.937    -201.497
  O     -221.891    -105.827    -200.713
  O     -222.285    -106.375    -203.214
  H     -221.754    -105.569    -203.430
  H     -223.546    -109.441    -200.151
  H     -224.054    -107.851    -199.635
  H     -222.355    -108.259    -199.664

 6  7  8  9  10  11  12  13  14  15  26  29  33  34 0
 6-311+G(2d,p)
 ****
 36  38  39  40  41 0
 6-311+G(2d,p)
 ****
 1  2  3  4  5  16  17  18  19  20  21  22  23  24  25 0
 3-21G
 ****
 27  28  30  31  32  35  37  42  43  44  45  46  47 0
 3-21G
 ****
 48  49 0
 3-21G
 ****


