%nproc=1
%NoSave
%Mem=1900MB
#P OB98/GEN NMR

erre ene a

0 1
  C      431.781     182.214    -672.610
  O      431.323     182.748    -673.829
  P      430.591     181.798    -674.904
  C      428.370     182.946    -674.284
  O      429.053     181.697    -674.454
  C      427.234     183.058    -675.302
  O      426.318     181.936    -675.192
  C      426.352     184.278    -675.118
  O      426.940     185.543    -675.340
  C      425.153     183.915    -675.974
  O      425.393     184.179    -677.357
  C      425.047     182.388    -675.722
  N      423.943     182.052    -674.831
  C      422.712     181.827    -675.444
  O      422.532     181.893    -676.652
  N      421.665     181.546    -674.600
  C      421.727     181.525    -673.234
  O      420.736     181.306    -672.539
  C      423.040     181.790    -672.644
  C      424.074     182.044    -673.449
  O      431.254     180.478    -675.141
  O      430.506     182.723    -676.205
  H      424.653     183.807    -677.864
  H      430.004     183.551    -676.087
  H      420.771     181.395    -675.024
  H      423.120     181.764    -671.565
  H      425.052     182.240    -673.042
  H      424.892     181.858    -676.670
  H      424.256     184.488    -675.694
  H      426.011     184.297    -674.070
  H      427.667     183.020    -676.310
  H      429.077     183.771    -674.438
  H      427.990     183.021    -673.257
  P      427.018     186.689    -674.218
  C      429.604     186.590    -673.955
  O      428.338     186.455    -673.343
  O      425.752     187.011    -673.494
  O      427.444     187.974    -675.100
  H      427.065     188.778    -674.691
  H      430.385     186.341    -673.235
  H      429.752     187.617    -674.303
  H      429.684     185.892    -674.806
  H      432.237     182.989    -672.030
  H      432.499     181.445    -672.805
  H      430.955     181.802    -672.069

 3  4  5  6  7  8  9  10  11  12  13  23  28  29  30  31  32 0
 6-311+G(2d,p)
 ****
 33  34 0
 6-311+G(2d,p)
 ****
 1  2  14  15  16  17  18  19  20  21  22  24  25  26  27 0
 3-21G
 ****
 35  36  37  38  39  40  41  42  43  44  45 0
 3-21G
 ****


