%nproc=1
%NoSave
%Mem=1900MB
#P OB98/GEN NMR

erre ene a

0 1
  C      -45.694    -121.215    -368.126
  O      -44.695    -120.221    -368.218
  H      -45.844    -121.468    -367.074
  H      -45.373    -122.114    -368.659
  H      -46.641    -120.854    -368.542
  P      -44.466    -119.561    -369.663
  C      -42.052    -120.522    -369.637
  O      -43.270    -120.382    -370.354
  C      -41.464    -121.911    -369.863
  O      -42.317    -122.920    -369.274
  C      -41.307    -122.293    -371.332
  O      -40.110    -121.760    -371.889
  C      -41.230    -123.808    -371.221
  O      -39.920    -124.200    -370.763
  C      -42.279    -124.094    -370.134
  N      -45.403    -127.610    -372.032
  C      -44.089    -127.717    -371.625
  N      -43.517    -128.937    -371.747
  N      -43.387    -126.722    -371.146
  C      -44.083    -125.559    -371.089
  C      -45.388    -125.328    -371.457
  C      -46.152    -126.436    -371.981
  O      -47.328    -126.399    -372.335
  N      -45.746    -124.022    -371.243
  C      -44.654    -123.461    -370.764
  N      -43.613    -124.350    -370.656
  O      -43.793    -118.146    -369.321
  O      -45.695    -119.389    -370.491
  H      -39.945    -125.167    -370.634
  H      -44.111    -117.482    -369.964
  H      -45.892    -128.402    -372.405
  H      -44.565    -122.422    -370.479
  H      -42.010    -124.952    -369.511
  H      -41.399    -124.308    -372.174
  H      -43.984    -129.731    -372.159
  H      -42.189    -122.014    -371.918
  H      -42.566    -129.048    -371.425
  H      -40.497    -121.958    -369.344
  H      -42.247    -120.379    -368.568
  H      -41.348    -119.752    -369.977
  P      -40.257    -120.657    -373.048
  C      -38.760    -122.150    -374.554
  O      -39.984    -121.436    -374.426
  O      -38.943    -119.760    -372.862
  O      -41.505    -119.843    -372.987
  H      -39.087    -118.873    -373.242
  H      -38.717    -122.615    -375.517
  H      -38.703    -122.900    -373.793
  H      -37.939    -121.472    -374.449

 6  7  8  9  10  11  12  13  14  15  26  29  33  34 0
 6-311+G(2d,p)
 ****
 36  38  39  40  41 0
 6-311+G(2d,p)
 ****
 1  2  3  4  5  16  17  18  19  20  21  22  23  24  25 0
 3-21G
 ****
 27  28  30  31  32  35  37  42  43  44  45  46  47 0
 3-21G
 ****
 48  49 0
 3-21G
 ****


