%nproc=1
%NoSave
%Mem=1900MB
#P OB98/GEN NMR

erre ene a

0 1
  C     -254.354     -69.345     -38.268
  O     -255.591     -70.031     -38.216
  H     -254.049     -69.092     -37.250
  H     -254.467     -68.421     -38.843
  H     -253.586     -69.975     -38.723
  P     -256.097     -70.691     -39.584
  C     -254.580     -72.786     -39.147
  O     -254.980     -71.756     -40.041
  C     -253.782     -73.850     -39.896
  O     -253.377     -74.908     -39.006
  C     -254.568     -74.571     -40.978
  O     -254.797     -73.767     -42.114
  C     -253.651     -75.757     -41.249
  O     -252.611     -75.422     -42.176
  C     -253.063     -76.044     -39.846
  N     -253.561     -77.291     -39.298
  C     -252.596     -78.291     -39.110
  O     -251.417     -78.070     -39.385
  N     -253.002     -79.517     -38.653
  C     -254.261     -79.739     -38.430
  N     -254.599     -80.986     -38.009
  C     -255.308     -78.715     -38.617
  C     -254.893     -77.524     -39.051
  O     -255.913     -69.498     -40.633
  O     -257.477     -71.254     -39.535
  H     -252.176     -76.265     -42.417
  H     -255.041     -69.072     -40.592
  H     -256.342     -78.945     -38.404
  H     -255.594     -76.715     -39.215
  H     -251.967     -76.103     -39.893
  H     -254.198     -76.601     -41.677
  H     -255.510     -74.957     -40.567
  H     -252.882     -73.374     -40.307
  H     -253.857     -81.674     -37.947
  H     -255.453     -73.236     -38.662
  H     -255.551     -81.296     -37.881
  H     -253.966     -72.328     -38.366
  P     -255.740     -74.262     -43.309
  C     -257.814     -73.020     -42.418
  O     -257.242     -74.284     -42.734
  O     -255.319     -75.528     -43.973
  O     -255.779     -72.994     -44.287
  H     -256.130     -72.180     -43.888
  H     -258.808     -73.161     -42.047
  H     -257.845     -72.412     -43.298
  H     -257.220     -72.536     -41.671

 6  7  8  9  10  11  12  13  14  15  16  26  30  31  32  33  35 0
 6-311+G(2d,p)
 ****
 37  38 0
 6-311+G(2d,p)
 ****
 1  2  3  4  5  17  18  19  20  21  22  23  24  25 0
 3-21G
 ****
 27  28  29  34  36  39  40  41  42  43  44  45  46 0
 3-21G
 ****


