%nproc=1
%NoSave
%Mem=1900MB
#P OB98/GEN NMR

erre ene a

0 1
  C       81.083      73.085    -104.656
  O       79.673      73.103    -104.620
  H       81.460      73.745    -103.871
  H       81.430      73.456    -105.625
  H       81.474      72.079    -104.487
  P       78.869      71.921    -105.340
  C       79.639      72.742    -107.661
  O       78.534      72.398    -106.836
  C       79.296      72.637    -109.148
  O       80.386      73.146    -109.948
  C       79.084      71.190    -109.594
  O       77.786      70.671    -109.368
  C       79.387      71.278    -111.087
  O       78.220      71.681    -111.823
  C       80.464      72.362    -111.151
  N       84.120      70.775    -114.346
  C       82.836      71.195    -114.635
  N       82.462      71.126    -115.931
  N       81.997      71.621    -113.728
  C       82.477      71.543    -112.464
  C       83.725      71.132    -112.055
  C       84.667      70.713    -113.074
  O       85.814      70.326    -112.871
  N       83.853      71.193    -110.688
  C       82.661      71.567    -110.269
  N       81.800      71.817    -111.311
  O       77.429      71.961    -104.634
  O       79.488      70.562    -105.223
  H       77.834      72.460    -111.384
  H       77.016      71.081    -104.674
  H       84.732      70.484    -115.088
  H       82.378      71.698    -109.230
  H       80.293      73.048    -111.991
  H       79.698      70.311    -111.493
  H       83.031      70.697    -116.644
  H       79.829      70.535    -109.130
  H       81.464      71.168    -116.142
  H       78.419      73.260    -109.360
  H       80.444      72.047    -107.414
  H       79.993      73.748    -107.420
  P       77.589      69.384    -108.437
  C       77.851      67.815    -110.496
  O       77.074      68.197    -109.383
  O       76.301      69.768    -107.570
  O       78.757      69.046    -107.576
  H       76.571      70.129    -106.706
  H       77.364      67.015    -111.013
  H       78.815      67.490    -110.164
  H       77.964      68.650    -111.156

 6  7  8  9  10  11  12  13  14  15  26  29  33  34 0
 6-311+G(2d,p)
 ****
 36  38  39  40  41 0
 6-311+G(2d,p)
 ****
 1  2  3  4  5  16  17  18  19  20  21  22  23  24  25 0
 3-21G
 ****
 27  28  30  31  32  35  37  42  43  44  45  46  47 0
 3-21G
 ****
 48  49 0
 3-21G
 ****


