%nproc=1
%NoSave
%Mem=1900MB
#P OB98/GEN NMR

erre ene a

0 1
  C      365.424    -432.116     241.157
  O      365.105    -432.283     242.541
  P      364.020    -433.399     242.897
  C      363.977    -435.355     244.617
  O      364.371    -434.021     244.338
  C      364.435    -435.754     246.029
  O      365.882    -435.835     246.115
  C      364.016    -434.760     247.106
  O      362.641    -434.884     247.403
  C      364.945    -435.163     248.235
  O      364.453    -436.330     248.918
  C      366.251    -435.509     247.481
  N      370.984    -434.156     248.916
  C      370.271    -435.296     249.057
  N      369.021    -435.588     248.660
  C      368.473    -434.525     248.024
  C      369.067    -433.294     247.800
  C      370.372    -433.114     248.283
  N      371.071    -431.944     248.141
  N      368.199    -432.456     247.117
  C      367.100    -433.176     246.954
  N      367.226    -434.436     247.478
  O      364.361    -434.589     241.882
  O      362.593    -432.929     242.749
  H      363.617    -436.065     249.376
  H      363.673    -434.644     241.188
  H      370.793    -436.109     249.576
  H      366.189    -432.828     246.479
  H      366.735    -436.403     247.894
  H      365.078    -434.374     248.997
  H      364.233    -433.728     246.784
  H      364.024    -436.746     246.251
  H      364.415    -436.038     243.885
  H      371.979    -431.866     248.590
  H      370.607    -431.137     247.745
  H      362.890    -435.419     244.519
  P      361.736    -433.561     247.335
  C      359.327    -433.108     246.537
  O      360.307    -434.094     246.822
  O      362.323    -432.832     246.027
  O      361.720    -432.741     248.581
  H      362.430    -433.468     245.288
  H      358.418    -433.607     246.187
  H      359.699    -432.426     245.769
  H      359.078    -432.553     247.455
  H      366.158    -431.344     241.051
  H      364.541    -431.845     240.618
  H      365.812    -433.034     240.767

 3  4  5  6  7  8  9  10  11  12  22  25  29  30  31  32 0
 6-311+G(2d,p)
 ****
 33  36  37 0
 6-311+G(2d,p)
 ****
 1  2  13  14  15  16  17  18  19  20  21  23  24  26 0
 3-21G
 ****
 27  28  34  35  38  39  40  41  42  43  44  45  46  47  48 0
 3-21G
 ****


