%nproc=1
%NoSave
%Mem=1900MB
#P OB98/GEN NMR

erre ene a

0 1
  C       67.587    -423.519    -155.680
  O       68.226    -424.709    -156.082
  P       67.499    -425.885    -156.872
  C       68.022    -425.468    -159.403
  O       67.093    -425.347    -158.330
  C       67.603    -426.582    -160.369
  O       67.500    -427.822    -159.623
  C       66.217    -426.310    -160.983
  O       66.130    -426.618    -162.370
  C       65.280    -427.052    -160.040
  O       64.012    -427.339    -160.611
  C       66.125    -428.260    -159.647
  N       62.450    -429.677    -156.433
  C       62.355    -429.344    -157.770
  N       61.101    -429.179    -158.251
  N       63.394    -429.136    -158.539
  C       64.574    -429.219    -157.889
  C       64.794    -429.548    -156.567
  C       63.642    -429.806    -155.740
  O       63.671    -429.998    -154.528
  N       66.122    -429.467    -156.241
  C       66.708    -429.051    -157.342
  N       65.800    -428.855    -158.366
  O       66.486    -426.680    -156.111
  O       68.739    -426.866    -157.208
  H       63.503    -427.856    -159.958
  H       68.394    -427.780    -157.183
  H       61.608    -429.745    -155.871
  H       67.762    -428.849    -157.454
  H       66.039    -429.065    -160.379
  H       65.099    -426.401    -159.175
  H       60.292    -429.191    -157.653
  H       65.987    -425.242    -160.946
  H       61.008    -428.694    -159.145
  H       68.379    -426.713    -161.129
  H       68.989    -425.702    -158.944
  H       68.124    -424.512    -159.930
  P       65.114    -426.040    -163.457
  C       66.758    -424.744    -164.949
  O       65.702    -424.653    -164.012
  O       63.832    -425.576    -162.626
  O       64.719    -427.011    -164.518
  H       63.019    -425.796    -163.126
  H       67.232    -423.765    -165.030
  H       66.359    -425.032    -165.921
  H       67.499    -425.481    -164.617
  H       68.288    -422.893    -155.169
  H       66.775    -423.754    -155.025
  H       67.213    -423.006    -156.542

 3  4  5  6  7  8  9  10  11  12  23  26  30  31 0
 6-311+G(2d,p)
 ****
 33  35  36  37  38 0
 6-311+G(2d,p)
 ****
 1  2  13  14  15  16  17  18  19  20  21  22  24  25 0
 3-21G
 ****
 27  28  29  32  34  39  40  41  42  43  44  45  46  47  48  49 0
 3-21G
 ****


