%nproc=1
%NoSave
%Mem=1900MB
#P OB98/GEN NMR

erre ene a

0 1
  C      178.018    -475.124    -177.516
  O      178.725    -476.359    -177.636
  P      179.545    -476.918    -176.369
  C      181.910    -476.724    -177.345
  O      180.896    -477.607    -176.886
  C      182.914    -477.417    -178.283
  O      183.854    -478.230    -177.513
  C      182.276    -478.343    -179.325
  O      183.067    -478.234    -180.518
  C      182.423    -479.716    -178.698
  O      182.291    -480.768    -179.647
  C      183.814    -479.566    -178.060
  N      184.058    -480.574    -177.034
  C      184.522    -481.821    -177.465
  O      184.604    -482.071    -178.668
  N      184.841    -482.761    -176.519
  C      184.589    -482.519    -175.263
  N      184.950    -483.477    -174.350
  C      183.934    -481.288    -174.791
  C      183.730    -480.356    -175.718
  O      178.745    -477.732    -175.395
  O      180.085    -475.571    -175.673
  H      182.709    -480.493    -180.495
  H      180.094    -475.698    -174.699
  H      183.663    -481.170    -173.750
  H      183.259    -479.414    -175.477
  H      184.600    -479.637    -178.819
  H      181.651    -479.853    -177.925
  H      181.239    -478.078    -179.565
  H      183.504    -476.644    -178.793
  H      185.372    -484.327    -174.685
  H      182.449    -476.315    -176.486
  H      184.819    -483.345    -173.364
  H      181.440    -475.861    -177.849
  P      182.618    -477.207    -181.668
  C      182.768    -479.083    -183.458
  O      183.135    -477.776    -183.066
  O      183.615    -475.968    -181.415
  O      181.201    -476.728    -181.600
  H      183.202    -475.158    -181.763
  H      182.968    -479.193    -184.544
  H      181.712    -479.270    -183.281
  H      183.370    -479.819    -182.918
  H      177.531    -474.900    -178.442
  H      178.706    -474.341    -177.277
  H      177.287    -475.206    -176.739

 3  4  5  6  7  8  9  10  11  12  13  23  27  28  29  30  32 0
 6-311+G(2d,p)
 ****
 34  35 0
 6-311+G(2d,p)
 ****
 1  2  14  15  16  17  18  19  20  21  22  24  25  26 0
 3-21G
 ****
 31  33  36  37  38  39  40  41  42  43  44  45  46 0
 3-21G
 ****


