%nproc=1
%NoSave
%Mem=1900MB
#P OB98/GEN NMR

erre ene a

0 1
  C     -864.002    1164.060     166.564
  O     -864.954    1164.852     165.887
  H     -863.102    1164.001     165.952
  H     -864.397    1163.046     166.711
  H     -863.758    1164.500     167.531
  P     -866.363    1165.070     166.634
  C     -866.540    1167.586     165.926
  O     -867.090    1166.279     165.867
  C     -866.359    1168.184     164.525
  O     -865.277    1167.475     163.852
  C     -867.618    1168.019     163.622
  O     -867.624    1169.111     162.699
  C     -867.296    1166.732     162.907
  O     -868.161    1166.553     161.799
  C     -865.824    1166.925     162.621
  N     -865.435    1163.164     159.193
  C     -866.187    1164.268     159.220
  N     -866.231    1165.232     160.157
  C     -865.356    1164.984     161.144
  C     -864.503    1163.902     161.254
  C     -864.548    1162.943     160.218
  N     -863.796    1161.806     160.195
  N     -863.751    1163.972     162.423
  C     -864.145    1165.100     162.989
  N     -865.106    1165.728     162.268
  O     -865.940    1165.728     168.034
  O     -867.195    1163.847     166.814
  H     -868.069    1165.667     161.410
  H     -865.873    1165.041     168.713
  H     -866.864    1164.401     158.367
  H     -863.749    1165.491     163.945
  H     -865.655    1167.672     161.835
  H     -867.468    1165.863     163.564
  H     -868.562    1168.006     164.205
  H     -866.066    1169.236     164.631
  H     -865.548    1167.533     166.425
  H     -867.193    1168.233     166.521
  H     -863.900    1161.153     159.421
  H     -863.154    1161.625     160.955
  P     -868.893    1170.118     162.690
  C     -867.506    1172.072     161.622
  O     -868.662    1171.228     161.567
  O     -868.656    1170.965     164.027
  O     -870.227    1169.473     162.686
  H     -869.509    1171.261     164.375
  H     -867.519    1172.749     160.794
  H     -866.622    1171.470     161.576
  H     -867.513    1172.627     162.537

 6  7  8  9  10  11  12  13  14  15  25  28  32  33  34  35 0
 6-311+G(2d,p)
 ****
 36  37  40 0
 6-311+G(2d,p)
 ****
 1  2  3  4  5  16  17  18  19  20  21  22  23  24 0
 3-21G
 ****
 26  27  29  30  31  38  39 41  42  43  44  45  46  47  48 0
 3-21G
 ****


