%nproc=1
%NoSave
%Mem=1900MB
#P OB98/GEN NMR

erre ene a

0 1
  C     -384.821      83.170     -76.742
  O     -385.266      84.499     -76.898
  H     -383.811      83.187     -76.327
  H     -384.792      82.672     -77.715
  H     -385.469      82.613     -76.061
  P     -386.818      84.766     -77.182
  C     -386.068      86.932     -78.369
  O     -386.985      86.336     -77.462
  C     -386.082      88.460     -78.232
  O     -385.285      88.836     -77.081
  C     -385.456      89.140     -79.453
  O     -385.988      90.443     -79.675
  C     -383.994      89.265     -79.052
  O     -383.304      90.293     -79.763
  C     -384.113      89.524     -77.552
  N     -380.328      90.860     -74.409
  C     -381.205      91.664     -75.109
  N     -381.053      93.000     -74.948
  N     -382.128      91.201     -75.911
  C     -382.116      89.852     -76.030
  C     -381.284      88.953     -75.406
  C     -380.287      89.473     -74.494
  O     -379.472      88.807     -73.863
  N     -381.566      87.662     -75.782
  C     -382.563      87.783     -76.637
  N     -382.951      89.092     -76.800
  O     -387.498      84.599     -75.740
  O     -387.454      83.866     -78.196
  H     -383.563      90.224     -80.699
  H     -388.446      84.395     -75.833
  H     -379.656      91.264     -73.783
  H     -383.050      86.961     -77.145
  H     -384.251      90.596     -77.355
  H     -383.493      88.322     -79.282
  H     -380.239      93.393     -74.501
  H     -385.563      88.552     -80.362
  H     -381.463      93.591     -75.678
  H     -387.103      88.811     -78.037
  H     -386.371      86.633     -79.373
  H     -385.061      86.540     -78.203
  P     -386.486      90.823     -81.150
  C     -385.988      93.348     -81.778
  O     -386.848      92.378     -81.216
  O     -387.904      90.099     -81.271
  O     -385.550      90.412     -82.244
  H     -387.873      89.406     -81.959
  H     -386.445      94.313     -81.708
  H     -385.808      93.112     -82.806
  H     -385.060      93.353     -81.246

 6  7  8  9  10  11  12  13  14  15  26  29  33  34 0
 6-311+G(2d,p)
 ****
 36  38  39  40  41 0
 6-311+G(2d,p)
 ****
 1  2  3  4  5  16  17  18  19  20  21  22  23  24  25 0
 3-21G
 ****
 27  28  30  31  32  35  37  42  43  44  45  46  47 0
 3-21G
 ****
 48  49 0
 3-21G
 ****


