%nproc=1
%NoSave
%Mem=1900MB
#P OB98/GEN NMR

erre ene a

0 1
  C      116.922     256.128     137.246
  O      116.111     256.260     136.092
  H      117.962     256.343     136.974
  H      116.875     255.109     137.642
  H      116.606     256.837     138.016
  P      114.567     255.844     136.198
  C      113.286     253.952     137.421
  O      114.551     254.449     136.990
  C      113.256     252.431     137.314
  O      113.308     252.028     135.929
  C      114.446     251.756     137.986
  O      114.293     251.751     139.395
  C      114.420     250.394     137.320
  O      113.433     249.540     137.911
  C      114.030     250.767     135.869
  N      115.181     250.869     134.978
  C      115.889     249.684     134.750
  O      115.523     248.629     135.278
  N      116.996     249.729     133.941
  C      117.364     250.851     133.403
  N      118.477     250.821     132.616
  C      116.642     252.120     133.605
  C      115.572     252.057     134.398
  O      113.778     255.838     134.923
  O      113.970     256.875     137.269
  H      113.309     248.801     137.282
  H      113.641     257.680     136.823
  H      116.981     253.026     133.128
  H      114.982     252.948     134.603
  H      113.334     250.027     135.451
  H      115.385     249.894     137.397
  H      115.376     252.258     137.701
  H      112.306     252.068     137.734
  H      118.948     249.930     132.511
  H      112.524     254.395     136.767
  H      118.802     251.610     132.073
  H      113.078     254.262     138.452
  P      115.579     251.742     140.351
  C      117.624     250.183     140.574
  O      116.275     250.311     140.130
  O      115.310     252.108     141.778
  O      116.587     252.749     139.617
  H      116.305     253.694     139.732
  H      117.973     249.192     140.373
  H      117.673     250.372     141.626
  H      118.239     250.889     140.056

 6  7  8  9  10  11  12  13  14  15  16  26  30  31  32  33  35 0
 6-311+G(2d,p)
 ****
 37  38 0
 6-311+G(2d,p)
 ****
 1  2  3  4  5  17  18  19  20  21  22  23  24  25 0
 3-21G
 ****
 27  28  29  34  36  39  40  41  42  43  44  45  46 0
 3-21G
 ****


