%nproc=1
%NoSave
%Mem=1900MB
#P OB98/GEN NMR

erre ene a

0 1
  C      324.434     845.896      12.466
  O      323.181     845.765      11.829
  H      325.199     846.083      11.700
  H      324.689     844.979      13.001
  H      324.418     846.743      13.158
  P      321.934     845.387      12.760
  C      321.648     843.600      14.630
  O      322.234     843.930      13.375
  C      322.152     842.235      15.085
  O      323.603     842.195      15.034
  C      321.785     841.884      16.520
  O      320.454     841.430      16.648
  C      322.802     840.780      16.804
  O      322.348     839.498      16.344
  C      324.039     841.249      16.020
  N      325.065     841.805      16.908
  C      325.955     840.888      17.471
  O      325.908     839.687      17.232
  N      326.887     841.399      18.322
  C      326.972     842.711      18.719
  O      327.798     843.096      19.552
  C      325.993     843.634      18.119
  C      325.087     843.143      17.259
  O      320.758     845.110      11.705
  O      321.555     846.434      13.758
  H      320.120     845.852      11.721
  H      322.156     839.608      15.389
  H      327.541     840.752      18.738
  H      326.046     844.672      18.422
  H      324.353     843.813      16.826
  H      324.492     840.411      15.482
  H      322.978     840.685      17.877
  H      321.989     842.734      17.184
  H      321.769     841.471      14.394
  H      320.560     843.554      14.528
  H      321.903     844.382      15.362
  P      319.742     841.596      18.079
  C      320.876     841.250      20.422
  O      320.638     840.765      19.106
  O      318.426     840.698      17.862
  O      319.480     843.019      18.440
  H      318.573     840.000      17.196
  H      321.494     840.556      20.952
  H      319.944     841.361      20.935
  H      321.369     842.198      20.369

 6  7  8  9  10  11  12  13  14  15  16  27  31  32  33  34  35 0
 6-311+G(2d,p)
 ****
 36  37 0
 6-311+G(2d,p)
 ****
 1  2  3  4  5  17  18  19  20  21  22  23  24  25 0
 3-21G
 ****
 26  28  29  30  38  39  40  41  42  43  44  45 0
 3-21G
 ****


