%nproc=1
%NoSave
%Mem=1900MB
#P OB98/GEN NMR

erre ene a

0 1
  C       -3.923     171.017      -8.380
  O       -3.168     170.011      -7.738
  P       -3.393     169.581      -6.216
  C       -2.541     167.159      -6.599
  O       -2.388     168.374      -5.877
  C       -1.236     166.349      -6.691
  O       -0.274     167.069      -7.483
  C       -0.619     166.186      -5.298
  O       -1.066     165.160      -4.433
  C        0.887     166.222      -5.528
  O        1.466     164.916      -5.575
  C        1.023     166.915      -6.888
  N        5.334     169.449      -6.051
  C        5.156     168.105      -6.312
  N        6.238     167.318      -6.139
  N        4.009     167.585      -6.682
  C        2.999     168.488      -6.713
  C        3.058     169.842      -6.496
  C        4.334     170.409      -6.126
  O        4.522     171.579      -5.802
  N        1.817     170.427      -6.545
  C        0.996     169.416      -6.760
  N        1.665     168.214      -6.833
  O       -4.810     169.485      -5.746
  O       -2.713     170.819      -5.433
  H        2.407     165.015      -5.807
  H       -3.223     170.966      -4.612
  H        6.224     169.780      -5.690
  H       -0.079     169.498      -6.836
  H        1.612     166.298      -7.579
  H        1.392     166.753      -4.712
  H        7.091     167.659      -5.715
  H       -0.838     167.110      -4.745
  H        6.103     166.313      -6.157
  H       -1.403     165.400      -7.212
  H       -2.905     167.415      -7.597
  H       -3.309     166.546      -6.123
  P       -2.092     165.318      -3.218
  C       -2.951     162.921      -3.433
  O       -2.349     163.877      -2.581
  O       -3.491     165.655      -3.923
  O       -1.741     166.391      -2.235
  H       -4.083     166.104      -3.287
  H       -3.348     162.101      -2.833
  H       -2.197     162.522      -4.121
  H       -3.766     163.370      -4.011
  H       -3.589     171.123      -9.391
  H       -3.794     171.945      -7.862
  H       -4.958     170.745      -8.373

 3  4  5  6  7  8  9  10  11  12  23  26  30  31 0
 6-311+G(2d,p)
 ****
 33  35  36  37  38 0
 6-311+G(2d,p)
 ****
 1  2  13  14  15  16  17  18  19  20  21  22  24  25 0
 3-21G
 ****
 27  28  29  32  34  39  40  41  42  43  44  45  46  47  48  49 0
 3-21G
 ****


