%nproc=1
%NoSave
%Mem=1900MB
#P OB98/GEN NMR

erre ene a

0 1
  C        9.030    -899.210    -231.949
  O        8.325    -898.090    -232.463
  H        8.309    -900.000    -231.720
  H        9.551    -898.940    -231.027
  H        9.743    -899.590    -232.685
  P        9.161    -896.850    -233.030
  C        9.613    -896.190    -230.582
  O        9.206    -895.750    -231.871
  C       10.546    -895.160    -229.949
  O       11.733    -895.000    -230.748
  C        9.936    -893.770    -229.847
  O        8.982    -893.680    -228.792
  C       11.181    -892.920    -229.650
  O       11.609    -892.940    -228.279
  C       12.205    -893.650    -230.548
  N       12.401    -892.960    -231.828
  C       13.378    -891.970    -231.843
  O       14.065    -891.670    -230.876
  N       13.500    -891.280    -233.023
  C       12.671    -891.400    -234.109
  O       12.663    -890.590    -235.035
  C       11.693    -892.500    -234.047
  C       11.601    -893.210    -232.924
  O        8.730    -896.350    -234.372
  O       10.667    -897.400    -233.064
  H       10.898    -897.630    -233.984
  H       11.004    -892.330    -227.805
  H       14.179    -890.540    -233.038
  H       11.070    -892.670    -234.917
  H       10.870    -894.000    -232.843
  H       13.174    -893.730    -230.037
  H       11.010    -891.880    -229.933
  H        9.462    -893.490    -230.792
  H       10.847    -895.530    -228.957
  H       10.153    -897.140    -230.695
  H        8.722    -896.350    -229.958
  P        7.437    -893.440    -229.117
  C        7.565    -890.960    -229.795
  O        7.108    -891.890    -228.822
  O        6.494    -894.400    -228.500
  O        7.360    -893.510    -230.723
  H        6.637    -894.130    -230.970
  H        7.292    -889.969    -229.497
  H        7.117    -891.184    -230.741
  H        8.630    -891.027    -229.880

 6  7  8  9  10  11  12  13  14  15  16  27  31  32  33  34  35 0
 6-311+G(2d,p)
 ****
 36  37 0
 6-311+G(2d,p)
 ****
 1  2  3  4  5  17  18  19  20  21  22  23  24  25 0
 3-21G
 ****
 26  28  29  30  38  39  40  41  42  43  44  45 0
 3-21G
 ****


