%nproc=1
%NoSave
%Mem=1900MB
#P OB98/GEN NMR

erre ene a

0 1
  C       82.867     -35.743    -586.637
  O       82.991     -35.959    -588.029
  H       83.327     -36.570    -586.089
  H       83.381     -34.813    -586.374
  H       81.812     -35.652    -586.359
  P       82.310     -37.296    -588.603
  C       84.444     -38.569    -587.875
  O       83.025     -38.530    -587.863
  C       84.931     -39.981    -588.188
  O       84.451     -40.866    -587.132
  C       84.442     -40.535    -589.537
  O       85.538     -41.065    -590.291
  C       83.512     -41.675    -589.154
  O       83.559     -42.757    -590.080
  C       84.022     -42.078    -587.773
  N       82.978     -46.248    -585.026
  C       84.155     -45.677    -585.369
  N       84.359     -44.506    -586.021
  C       83.195     -43.899    -586.297
  C       81.919     -44.351    -585.984
  C       81.831     -45.594    -585.338
  N       80.634     -46.203    -585.036
  N       80.964     -43.457    -586.434
  C       81.648     -42.504    -587.041
  N       83.001     -42.740    -586.995
  O       82.873     -37.375    -590.103
  O       80.817     -37.295    -588.577
  H       83.143     -42.449    -590.905
  H       82.120     -37.334    -590.726
  H       85.047     -46.229    -585.091
  H       81.217     -41.656    -587.562
  H       84.894     -42.746    -587.839
  H       82.483     -41.299    -589.105
  H       83.922     -39.784    -590.137
  H       86.029     -39.995    -588.144
  H       84.830     -38.260    -586.894
  H       80.660     -47.144    -584.682
  H       79.772     -45.773    -585.363
  H       84.816     -37.862    -588.637
  P       86.412     -40.001    -591.129
  C       85.352     -40.176    -593.496
  O       85.488     -39.411    -592.300
  O       87.476     -40.921    -591.885
  O       87.085     -38.979    -590.266
  H       88.385     -40.637    -591.674
  H       84.711     -39.659    -594.179
  H       84.929     -41.131    -593.263
  H       86.314     -40.312    -593.944

 6  7  8  9  10  11  12  13  14  15  25  28  32  33  34  35 0
 6-311+G(2d,p)
 ****
 36  39  40 0
 6-311+G(2d,p)
 ****
 1  2  3  4  5  16  17  18  19  20  21  22  23  24 0
 3-21G
 ****
 26  27  29  30  31  37  38  41  42  43  44  45  46  47  48 0
 3-21G
 ****


