%nproc=1
%NoSave
%Mem=1900MB
#P OB98/GEN NMR

erre ene a

0 1
  C       83.977     215.694    -310.595
  O       84.335     216.188    -311.896
  P       85.725     216.973    -312.080
  C       86.289     216.718    -314.615
  O       85.843     217.563    -313.567
  C       85.110     216.030    -315.317
  O       84.239     217.027    -315.925
  C       85.514     215.052    -316.429
  O       84.538     214.001    -316.441
  C       85.381     215.904    -317.678
  O       85.267     215.137    -318.870
  C       84.125     216.706    -317.327
  N       83.944     217.919    -318.126
  C       83.201     217.823    -319.297
  O       82.734     216.776    -319.740
  N       83.023     218.995    -319.988
  C       83.537     220.214    -319.654
  O       83.368     221.219    -320.331
  C       84.338     220.249    -318.423
  C       84.501     219.122    -317.729
  O       86.784     215.769    -312.108
  O       86.068     217.934    -310.987
  H       84.557     214.484    -318.727
  H       87.542     215.983    -311.535
  H       82.475     218.947    -320.832
  H       84.759     221.199    -318.121
  H       85.078     219.128    -316.810
  H       83.241     216.069    -317.433
  H       86.264     216.543    -317.778
  H       86.518     214.638    -316.292
  H       84.513     215.515    -314.554
  H       86.952     215.952    -314.201
  H       86.862     217.313    -315.334
  P       85.044     212.485    -316.256
  C       83.099     211.333    -314.940
  O       83.741     211.559    -316.174
  O       85.553     212.539    -314.734
  O       86.105     212.066    -317.217
  H       84.927     212.992    -314.147
  H       83.052     212.246    -314.340
  H       83.636     210.561    -314.383
  H       82.081     210.988    -315.131
  H       83.029     215.201    -310.649
  H       83.915     216.512    -309.908
  H       84.721     215.002    -310.259

 3  4  5  6  7  8  9  10  11  12  13  23  28  29  30  31  32 0
 6-311+G(2d,p)
 ****
 33  34 0
 6-311+G(2d,p)
 ****
 1  2  14  15  16  17  18  19  20  21  22  24  25  26 0
 3-21G
 ****
 27  35  36  37  38  39  40  41  42  43  44  45 0
 3-21G
 ****


