%nproc=1
%NoSave
%Mem=1900MB
#P OB98/GEN NMR

erre ene a

0 1
  C       11.894     122.382     -28.202
  O       10.840     121.561     -28.660
  H       11.529     123.408     -28.121
  H       12.722     122.362     -28.915
  H       12.242     122.056     -27.218
  P       11.055     119.973     -28.692
  C       12.051     119.223     -30.952
  O       12.315     119.696     -29.640
  C       13.267     118.479     -31.517
  O       14.354     119.438     -31.701
  C       13.804     117.358     -30.603
  O       14.383     116.363     -31.459
  C       14.871     118.110     -29.827
  O       15.713     117.253     -29.099
  C       15.490     118.922     -30.972
  N       16.375     120.006     -30.564
  C       17.726     119.887     -30.874
  O       18.226     118.936     -31.472
  N       18.522     120.924     -30.463
  C       18.107     122.045     -29.804
  O       18.863     122.956     -29.489
  C       16.671     122.108     -29.498
  C       15.881     121.105     -29.890
  O        9.841     119.161     -28.999
  O       11.630     119.642     -27.233
  H       10.919     119.271     -26.677
  H       15.211     116.878     -28.342
  H       19.503     120.859     -30.684
  H       16.310     122.977     -28.965
  H       14.816     121.127     -29.687
  H       16.029     118.255     -31.653
  H       14.402     118.766     -29.090
  H       13.029     116.902     -29.984
  H       13.014     118.092     -32.511
  H       11.819     120.086     -31.587
  H       11.183     118.556     -30.925
  P       13.866     114.844     -31.524
  C       14.959     113.906     -29.372
  O       13.752     114.290     -30.020
  O       14.672     113.969     -32.426
  O       12.345     114.936     -32.017
  H       12.098     114.108     -32.469
  H       14.739     113.559     -28.384
  H       15.617     114.748     -29.316
  H       15.429     113.122     -29.929

 6  7  8  9  10  11  12  13  14  15  16  27  31  32  33  34  35 0
 6-311+G(2d,p)
 ****
 36  37 0
 6-311+G(2d,p)
 ****
 1  2  3  4  5  17  18  19  20  21  22  23  24  25 0
 3-21G
 ****
 26  28  29  30  38  39  40  41  42  43  44  45 0
 3-21G
 ****


