%nproc=1
%NoSave
%Mem=1900MB
#P OB98/GEN NMR

erre ene a

0 1
  C     -303.718    -300.456    -383.073
  O     -304.408    -301.614    -382.654
  P     -305.110    -302.639    -383.669
  C     -307.428    -302.005    -382.675
  O     -306.646    -302.190    -383.853
  C     -308.902    -301.650    -382.975
  O     -308.949    -300.447    -383.788
  C     -309.551    -302.768    -383.818
  O     -310.075    -303.903    -383.184
  C     -310.515    -302.033    -384.743
  O     -311.868    -302.063    -384.271
  C     -309.982    -300.601    -384.772
  N     -310.885    -300.146    -389.736
  C     -311.784    -300.334    -388.704
  N     -313.060    -300.624    -389.067
  N     -311.461    -300.272    -387.440
  C     -310.122    -300.064    -387.239
  C     -309.145    -299.854    -388.181
  C     -309.527    -299.887    -389.575
  O     -308.757    -299.809    -390.521
  N     -307.900    -299.748    -387.616
  C     -308.123    -299.949    -386.326
  N     -309.450    -300.180    -386.059
  O     -304.802    -304.086    -383.493
  O     -304.449    -302.180    -385.080
  H     -312.420    -301.555    -384.894
  H     -304.357    -302.979    -385.629
  H     -311.187    -300.292    -390.692
  H     -307.348    -299.963    -385.561
  H     -310.775    -299.886    -384.494
  H     -310.522    -302.517    -385.736
  H     -313.309    -300.830    -390.028
  H     -308.756    -303.158    -384.470
  H     -313.694    -300.932    -388.350
  H     -309.443    -301.407    -382.058
  H     -306.951    -301.216    -382.084
  H     -307.401    -302.927    -382.070
  P     -310.421    -305.303    -383.885
  C     -312.884    -305.558    -383.173
  O     -312.002    -305.292    -384.249
  O     -310.355    -306.379    -382.692
  O     -309.524    -305.689    -385.009
  H     -310.197    -307.266    -383.077
  H     -313.865    -305.828    -383.594
  H     -312.989    -304.668    -382.557
  H     -312.529    -306.400    -382.562
  H     -303.340    -299.937    -382.217
  H     -304.387    -299.817    -383.611
  H     -302.904    -300.736    -383.709

 3  4  5  6  7  8  9  10  11  12  23  26  30  31 0
 6-311+G(2d,p)
 ****
 33  35  36  37  38 0
 6-311+G(2d,p)
 ****
 1  2  13  14  15  16  17  18  19  20  21  22  24  25 0
 3-21G
 ****
 27  28  29  32  34  39  40  41  42  43  44  45  46  47  48  49 0
 3-21G
 ****


