%nproc=1
%NoSave
%Mem=1900MB
#P OB98/GEN NMR

erre ene a

0 1
  C     -266.407      88.109      95.737
  O     -265.301      87.258      95.518
  H     -267.272      87.494      95.999
  H     -266.639      88.662      94.824
  H     -266.208      88.803      96.558
  P     -263.861      87.908      95.254
  C     -262.572      86.430      96.932
  O     -262.763      86.778      95.568
  C     -262.020      85.006      97.055
  O     -263.114      84.068      96.889
  C     -260.950      84.668      96.013
  O     -259.957      83.838      96.614
  C     -261.715      83.880      94.967
  O     -260.873      82.990      94.238
  C     -262.768      83.170      95.815
  N     -264.754      79.760      92.660
  C     -263.553      79.750      93.342
  N     -262.751      78.683      93.140
  N     -263.169      80.705      94.148
  C     -264.081      81.701      94.271
  C     -265.302      81.826      93.653
  C     -265.705      80.772      92.746
  O     -266.750      80.733      92.103
  N     -265.929      82.989      94.021
  C     -265.088      83.566      94.859
  N     -263.947      82.829      95.035
  O     -263.624      89.215      95.943
  O     -263.781      88.061      93.666
  H     -261.396      82.663      93.474
  H     -263.897      88.990      93.397
  H     -264.995      79.005      92.043
  H     -265.253      84.512      95.358
  H     -262.394      82.236      96.252
  H     -262.184      84.568      94.254
  H     -262.994      77.900      92.552
  H     -260.482      85.560      95.598
  H     -261.878      78.635      93.652
  H     -261.634      84.870      98.073
  H     -263.539      86.494      97.441
  H     -261.881      87.143      97.393
  P     -258.407      84.195      96.396
  C     -257.868      83.268      98.732
  O     -257.522      83.258      97.353
  O     -258.071      85.648      96.451
  O     -258.105      83.591      94.940
  H     -257.457      84.168      94.489
  H     -257.215      82.611      99.268
  H     -258.879      82.939      98.848
  H     -257.770      84.261      99.117

 6  7  8  9  10  11  12  13  14  15  26  29  33  34 0
 6-311+G(2d,p)
 ****
 36  38  39  40  41 0
 6-311+G(2d,p)
 ****
 1  2  3  4  5  16  17  18  19  20  21  22  23  24  25 0
 3-21G
 ****
 27  28  30  31  32  35  37  42  43  44  45  46  47 0
 3-21G
 ****
 48  49 0
 3-21G
 ****


