%nproc=1
%NoSave
%Mem=1900MB
#P OB98/GEN NMR

erre ene a

0 1
  C       44.572    -107.315    -647.264
  O       43.735    -106.516    -646.451
  P       43.401    -106.948    -644.942
  C       42.108    -108.816    -643.780
  O       42.342    -108.153    -645.006
  C       40.632    -109.212    -643.634
  O       39.836    -108.015    -643.379
  C       40.035    -109.905    -644.879
  O       39.078    -110.848    -644.397
  C       39.313    -108.758    -645.575
  O       38.302    -109.203    -646.476
  C       38.784    -107.982    -644.372
  N       34.981    -104.620    -645.002
  C       34.977    -105.946    -644.747
  N       36.041    -106.786    -644.620
  C       37.178    -106.115    -644.784
  C       37.351    -104.770    -645.085
  C       36.169    -103.996    -645.177
  N       36.161    -102.636    -645.413
  N       38.696    -104.468    -645.234
  C       39.313    -105.604    -645.025
  N       38.467    -106.613    -644.686
  O       43.016    -105.819    -644.035
  O       44.748    -107.658    -644.438
  H       38.697    -109.845    -647.100
  H       45.229    -107.079    -643.820
  H       33.992    -106.400    -644.624
  H       40.394    -105.758    -645.113
  H       37.899    -108.459    -643.928
  H       40.028    -108.154    -646.146
  H       40.775    -110.383    -645.515
  H       40.532    -109.856    -642.756
  H       42.369    -108.120    -642.969
  H       35.281    -102.171    -645.336
  H       37.024    -102.111    -645.278
  H       42.747    -109.705    -643.698
  P       38.371    -111.868    -645.429
  C       36.864    -111.644    -647.485
  O       37.691    -110.968    -646.550
  O       37.486    -112.892    -644.810
  O       39.610    -112.534    -646.199
  H       39.318    -113.353    -646.642
  H       37.484    -112.120    -648.238
  H       36.184    -110.933    -647.957
  H       36.259    -112.427    -646.984
  H       44.672    -106.861    -648.228
  H       44.141    -108.289    -647.371
  H       45.536    -107.400    -646.808

 3  4  5  6  7  8  9  10  11  12  22  25  29  30  31  32 0
 6-311+G(2d,p)
 ****
 33  36  37 0
 6-311+G(2d,p)
 ****
 1  2  13  14  15  16  17  18  19  20  21  23  24  26 0
 3-21G
 ****
 27  28  34  35  38  39  40  41  42  43  44  45  46  47  48 0
 3-21G
 ****


