%nproc=1
%NoSave
%Mem=1900MB
#P OB98/GEN NMR

erre ene a

0 1
  C      -83.919      24.704     -91.849
  O      -83.788      26.107     -91.797
  P      -85.033      27.106     -91.792
  C      -83.683      28.996     -92.968
  O      -84.463      28.614     -91.842
  C      -83.463      30.515     -93.063
  O      -84.731      31.177     -93.245
  C      -82.893      31.043     -91.735
  O      -81.503      30.967     -91.479
  C      -83.506      32.433     -91.564
  O      -82.619      33.473     -91.981
  C      -84.742      32.382     -92.466
  N      -87.930      35.340     -89.854
  C      -86.882      35.707     -90.684
  N      -86.538      37.010     -90.658
  N      -86.235      34.859     -91.445
  C      -86.637      33.576     -91.291
  C      -87.666      33.098     -90.514
  C      -88.407      34.047     -89.712
  O      -89.283      33.750     -88.902
  N      -87.738      31.727     -90.548
  C      -86.729      31.374     -91.313
  N      -86.002      32.457     -91.754
  O      -86.152      26.791     -90.849
  O      -85.597      26.913     -93.291
  H      -81.735      33.260     -91.651
  H      -86.571      27.004     -93.252
  H      -88.347      36.027     -89.234
  H      -86.454      30.353     -91.549
  H      -84.729      33.215     -93.180
  H      -83.741      32.625     -90.509
  H      -86.915      37.659     -89.980
  H      -83.342      30.439     -90.935
  H      -85.672      37.281     -91.116
  H      -82.859      30.773     -93.931
  H      -84.194      28.627     -93.867
  H      -82.708      28.496     -92.924
  P      -80.774      29.934     -90.499
  C      -78.867      31.333     -89.519
  O      -79.219      30.308     -90.431
  O      -80.773      28.553     -91.317
  O      -81.436      29.748     -89.170
  H      -80.678      27.803     -90.697
  H      -77.874      31.710     -89.765
  H      -78.848      30.919     -88.503
  H      -79.590      32.160     -89.556
  H      -82.948      24.255     -91.841
  H      -84.433      24.427     -92.745
  H      -84.475      24.366     -91.000

 3  4  5  6  7  8  9  10  11  12  23  26  30  31 0
 6-311+G(2d,p)
 ****
 33  35  36  37  38 0
 6-311+G(2d,p)
 ****
 1  2  13  14  15  16  17  18  19  20  21  22  24  25 0
 3-21G
 ****
 27  28  29  32  34  39  40  41  42  43  44  45  46  47  48  49 0
 3-21G
 ****


