%nproc=1
%NoSave
%Mem=1900MB
#P OB98/GEN NMR

erre ene a

0 1
  C      -15.058     502.228      20.844
  O      -13.666     502.423      20.984
  H      -15.489     503.112      20.366
  H      -15.525     502.090      21.823
  H      -15.250     501.355      20.210
  P      -12.844     501.244      21.699
  C      -12.693     502.676      23.840
  O      -13.135     501.453      23.267
  C      -12.954     502.688      25.345
  O      -12.072     501.731      25.974
  C      -12.704     504.054      25.997
  O      -13.686     504.280      27.006
  C      -11.336     503.895      26.638
  O      -11.148     504.776      27.743
  C      -11.343     502.411      27.012
  N       -6.972     502.701      29.633
  C       -8.189     503.247      29.843
  N       -9.311     503.102      29.094
  C       -9.091     502.264      28.071
  C       -7.901     501.640      27.722
  C       -6.803     501.892      28.560
  N       -5.550     501.359      28.339
  N       -8.069     500.889      26.576
  C       -9.334     501.049      26.243
  N       -9.988     501.885      27.101
  O      -11.405     501.144      21.324
  O      -13.736     499.967      21.347
  H      -11.615     504.401      28.520
  H      -14.687     500.152      21.464
  H       -8.277     503.889      30.716
  H       -9.816     500.599      25.381
  H      -11.831     502.215      27.970
  H      -10.558     504.106      25.897
  H      -12.722     504.871      25.273
  H      -13.983     502.344      25.527
  H      -13.210     503.520      23.368
  H       -4.818     501.585      28.997
  H       -5.405     500.744      27.555
  H      -11.618     502.776      23.637
  P      -15.076     504.956      26.583
  C      -14.121     507.339      26.881
  O      -14.779     506.420      26.008
  O      -16.178     504.875      27.592
  O      -15.465     504.138      25.253
  H      -16.429     504.003      25.236
  H      -13.984     508.273      26.378
  H      -13.168     506.943      27.164
  H      -14.718     507.490      27.756

 6  7  8  9  10  11  12  13  14  15  25  28  32  33  34  35 0
 6-311+G(2d,p)
 ****
 36  39  40 0
 6-311+G(2d,p)
 ****
 1  2  3  4  5  16  17  18  19  20  21  22  23  24 0
 3-21G
 ****
 26  27  29  30  31  37  38  41  42  43  44  45  46  47 0
 3-21G
 ****
 48 0
 3-21G
 ****


