%nproc=1
%NoSave
%Mem=1900MB
#P OB98/GEN NMR

erre ene a

0 1
  C     -376.411    -173.142    -243.806
  O     -376.386    -172.866    -245.192
  H     -377.074    -172.421    -243.317
  H     -375.407    -173.038    -243.386
  H     -376.789    -174.152    -243.625
  P     -375.608    -173.910    -246.124
  C     -377.699    -175.498    -246.046
  O     -376.292    -175.347    -245.900
  C     -378.015    -176.184    -247.373
  O     -377.524    -177.539    -247.390
  C     -379.502    -176.334    -247.650
  O     -380.126    -175.109    -247.959
  C     -379.468    -177.320    -248.807
  O     -379.145    -176.661    -250.039
  C     -378.316    -178.261    -248.372
  N     -378.800    -179.530    -247.848
  C     -379.515    -180.328    -248.749
  O     -379.694    -179.950    -249.907
  N     -380.034    -181.517    -248.304
  C     -379.836    -181.892    -247.080
  N     -380.383    -183.077    -246.699
  C     -379.065    -181.095    -246.105
  C     -378.587    -179.935    -246.551
  O     -374.204    -174.068    -245.377
  O     -375.505    -173.526    -247.563
  H     -378.969    -177.368    -250.691
  H     -374.286    -174.302    -244.438
  H     -378.918    -181.452    -245.096
  H     -378.011    -179.289    -245.901
  H     -377.651    -178.474    -249.219
  H     -380.429    -177.814    -248.954
  H     -379.996    -176.827    -246.804
  H     -377.511    -175.626    -248.173
  H     -380.923    -183.587    -247.389
  H     -378.203    -174.530    -245.981
  H     -380.324    -183.453    -245.765
  H     -378.053    -176.111    -245.210
  P     -381.673    -174.872    -247.611
  C     -381.193    -173.093    -245.814
  O     -381.721    -174.389    -246.081
  O     -382.578    -176.014    -247.930
  O     -382.026    -173.524    -248.402
  H     -381.496    -172.749    -248.141
  H     -381.278    -172.882    -244.769
  H     -381.741    -172.363    -246.372
  H     -380.163    -173.061    -246.101

 6  7  8  9  10  11  12  13  14  15  16  26  30  31  32  33  35 0
 6-311+G(2d,p)
 ****
 37  38 0
 6-311+G(2d,p)
 ****
 1  2  3  4  5  17  18  19  20  21  22  23  24  25 0
 3-21G
 ****
 27  28  29  34  36  39  40  41  42  43  44  45  46 0
 3-21G
 ****


