%nproc=1
%NoSave
%Mem=1900MB
#P OB98/GEN NMR

erre ene a

0 1
  C      792.110     -33.607    -207.376
  O      792.969     -34.689    -207.678
  P      793.137     -35.933    -206.656
  C      795.704     -35.540    -206.776
  O      794.556     -35.678    -205.936
  C      796.910     -35.194    -205.926
  O      796.690     -33.940    -205.245
  C      797.267     -36.209    -204.843
  O      797.878     -37.359    -205.384
  C      798.129     -35.360    -203.918
  O      799.461     -35.255    -204.432
  C      797.433     -33.984    -203.994
  N      796.553     -33.732    -202.849
  C      797.187     -33.433    -201.631
  O      798.412     -33.397    -201.541
  N      796.396     -33.156    -200.529
  C      795.111     -33.200    -200.643
  N      794.383     -32.847    -199.537
  C      794.397     -33.564    -201.883
  C      795.174     -33.813    -202.943
  O      792.985     -37.270    -207.276
  O      792.094     -35.621    -205.488
  H      800.015     -34.889    -203.714
  H      791.187     -35.988    -205.649
  H      793.324     -33.584    -201.911
  H      794.740     -34.055    -203.888
  H      798.176     -33.195    -204.049
  H      798.179     -35.763    -202.898
  H      796.349     -36.516    -204.320
  H      797.782     -35.057    -206.594
  H      794.905     -32.449    -198.760
  H      795.514     -34.731    -207.497
  H      793.412     -32.582    -199.607
  H      795.849     -36.487    -207.331
  P      798.383     -38.496    -204.378
  C      800.632     -38.586    -205.688
  O      799.993     -38.445    -204.439
  O      797.996     -39.846    -205.123
  O      797.782     -38.416    -203.013
  H      797.191     -40.222    -204.747
  H      801.675     -38.312    -205.587
  H      800.149     -37.936    -206.441
  H      800.571     -39.643    -206.003
  H      792.140     -32.894    -208.173
  H      792.430     -33.140    -206.468
  H      791.110     -33.968    -207.258

 3  4  5  6  7  8  9  10  11  12  13  23  27  28  29  30  32 0
 6-311+G(2d,p)
 ****
 34  35 0
 6-311+G(2d,p)
 ****
 1  2  14  15  16  17  18  19  20  21  22  24  25  26 0
 3-21G
 ****
 31  33  36  37  38  39  40  41  42  43  44  45  46 0
 3-21G
 ****


