%nproc=1
%NoSave
%Mem=1900MB
#P OB98/GEN NMR

erre ene a

0 1
  C      316.552     300.095      39.978
  O      316.414     299.499      41.252
  H      317.611     300.296      39.801
  H      316.004     301.043      39.938
  H      316.188     299.421      39.197
  P      314.942     299.141      41.773
  C      315.236     296.721      40.914
  O      314.442     297.900      40.885
  C      314.552     295.606      40.128
  O      315.434     294.475      39.997
  C      313.272     295.078      40.779
  O      312.176     295.926      40.479
  C      313.158     293.720      40.101
  O      312.664     293.890      38.760
  C      314.629     293.262      40.065
  N      314.329     288.803      42.468
  C      313.632     289.263      41.367
  N      312.701     288.431      40.855
  N      313.819     290.440      40.827
  C      314.730     291.192      41.490
  C      315.471     290.853      42.599
  C      315.299     289.520      43.144
  O      315.916     289.064      44.105
  N      316.225     291.907      43.044
  C      315.978     292.867      42.173
  N      315.071     292.487      41.213
  O      313.969     300.280      41.830
  O      315.182     298.482      43.213
  H      312.542     293.000      38.383
  H      315.136     299.154      43.921
  H      314.133     287.889      42.842
  H      316.431     293.855      42.187
  H      314.852     292.666      39.175
  H      312.472     293.049      40.615
  H      312.406     287.580      41.313
  H      313.397     294.929      41.855
  H      312.138     288.780      40.083
  H      314.355     295.979      39.117
  H      315.360     296.435      41.960
  H      316.227     296.918      40.486
  P      310.702     295.625      41.046
  C      311.230     297.222      43.008
  O      310.775     295.942      42.612
  O      310.168     294.274      40.703
  O      309.815     296.836      40.500
  H      309.470     296.682      39.586
  H      311.225     297.288      44.076
  H      310.584     297.972      42.602
  H      312.225     297.375      42.646

 6  7  8  9  10  11  12  13  14  15  26  29  33  34 0
 6-311+G(2d,p)
 ****
 36  38  39  40  41 0
 6-311+G(2d,p)
 ****
 1  2  3  4  5  16  17  18  19  20  21  22  23  24  25 0
 3-21G
 ****
 27  28  30  31  32  35  37  42  43  44  45  46  47 0
 3-21G
 ****
 48  49 0
 3-21G
 ****


