%nproc=1
%NoSave
%Mem=1900MB
#P OB98/GEN NMR

erre ene a

0 1
  C      451.340      97.288    -895.460
  O      450.241      97.458    -894.540
  P      449.149      98.576    -894.830
  C      447.012      97.220    -895.490
  O      448.072      98.052    -895.930
  C      445.735      97.477    -896.310
  O      445.234      98.837    -896.060
  C      445.909      97.334    -897.850
  O      444.658      96.874    -898.350
  C      446.118      98.796    -898.260
  O      445.867      98.996    -899.650
  C      445.155      99.516    -897.340
  N      445.396     100.962    -897.180
  C      444.580     101.825    -897.850
  O      443.687     101.484    -898.650
  N      444.819     103.158    -897.680
  C      445.840     103.701    -896.920
  O      446.025     104.884    -896.800
  C      446.695     102.709    -896.220
  C      446.447     101.413    -896.420
  O      449.987      99.648    -895.710
  O      448.552      99.238    -893.630
  H      446.048      99.940    -899.830
  H      449.813     100.557    -895.390
  H      444.236     103.804    -898.180
  H      447.504     103.097    -895.600
  H      447.068     100.674    -895.890
  H      444.118      99.357    -897.680
  H      447.173      99.065    -898.070
  H      446.725      96.684    -898.100
  H      444.931      96.797    -895.940
  H      446.813      97.438    -894.430
  H      447.322      96.161    -895.570
  P      444.531      95.274    -898.720
  C      442.657      94.297    -897.190
  O      444.027      94.538    -897.410
  O      446.098      94.893    -898.780
  O      443.801      95.013    -900.000
  H      446.607      95.264    -898.030
  H      442.148      93.991    -898.140
  H      442.192      95.218    -896.810
  H      442.531      93.501    -896.470
  H      451.975      96.499    -895.115
  H      451.901      98.198    -895.518
  H      450.959      97.042    -896.429

 3  4  5  6  7  8  9  10  11  12  13  23  28  29  30  31  32 0
 6-311+G(2d,p)
 ****
 33  34 0
 6-311+G(2d,p)
 ****
 1  2  14  15  16  17  18  19  20  21  22  24  25  26 0
 3-21G
 ****
 27  35  36  37  38  39  40  41  42  43  44  45 0
 3-21G
 ****


