%nproc=1
%NoSave
%Mem=1900MB
#P OB98/GEN NMR

erre ene a

0 1
  C        5.701     -79.490    -898.070
  O        7.073     -79.607    -897.710
  P        7.535     -78.912    -896.340
  C        7.034     -81.078    -894.980
  O        7.992     -80.109    -895.380
  C        7.721     -82.403    -894.650
  O        8.030     -83.132    -895.860
  C        9.036     -82.245    -893.910
  O        8.800     -81.961    -892.540
  C        9.675     -83.618    -894.150
  O        9.247     -84.567    -893.160
  C        9.154     -83.984    -895.550
  N       10.177     -83.921    -896.590
  C       10.362     -85.083    -897.350
  O        9.675     -86.085    -897.120
  N       11.329     -85.086    -898.320
  C       12.069     -84.035    -898.510
  N       13.009     -84.084    -899.480
  C       11.921     -82.791    -897.710
  C       10.982     -82.806    -896.770
  O        6.150     -78.432    -895.680
  O        8.499     -77.793    -896.500
  H        9.440     -84.150    -892.300
  H        6.282     -77.671    -895.090
  H       12.561     -81.936    -897.900
  H       10.808     -81.941    -896.140
  H        8.747     -85.013    -895.550
  H       10.760     -83.567    -894.100
  H        9.649     -81.472    -894.360
  H        7.013     -83.021    -894.060
  H       13.094     -84.965    -900.000
  H        6.330     -81.255    -895.820
  H       13.618     -83.317    -899.720
  H        6.477     -80.711    -894.130
  P        9.939     -81.160    -891.750
  C        9.331     -78.836    -892.640
  O        9.327     -79.701    -891.510
  O       11.017     -80.893    -892.890
  O       10.532     -81.832    -890.550
  H       11.835     -80.489    -892.510
  H        8.741     -77.940    -892.400
  H        8.867     -79.312    -893.500
  H       10.352     -78.536    -892.880
  H        5.531     -79.995    -898.998
  H        5.447     -78.456    -898.175
  H        5.093     -79.931    -897.308

 3  4  5  6  7  8  9  10  11  12  13  21  23  27  28  29  30  32 0
 6-311+G(2d,p)
 ****
 34  35 0
 6-311+G(2d,p)
 ****
 1  2  14  15  16  17  18  19  20  22  24  25  26 0
 3-21G
 ****
 31  33  36  37  38  39  40  41  42  43  44  45  46 0
 3-21G
 ****


