%nproc=1
%NoSave
%Mem=1900MB
#P OB98/GEN NMR

erre ene a

0 1
  C      475.534     109.929     101.969
  O      475.502     109.216     100.724
  P      475.565     109.934      99.291
  C      477.363     108.702      97.886
  O      477.070     109.810      98.735
  C      477.341     109.126      96.417
  O      478.426     110.044      96.142
  C      477.543     107.995      95.413
  O      476.404     107.163      95.297
  C      477.880     108.783      94.147
  O      476.691     109.214      93.468
  C      478.643     109.999      94.707
  N      480.065     109.977      94.398
  C      480.464     110.643      93.234
  O      479.623     111.143      92.484
  N      481.803     110.706      92.943
  C      482.656     110.078      93.689
  N      483.971     110.194      93.359
  C      482.260     109.246      94.845
  C      480.967     109.244      95.139
  O      475.040     111.333      99.290
  O      474.716     109.000      98.306
  H      474.359     109.535      97.571
  H      476.156     108.411      93.303
  H      483.005     108.708      95.411
  H      480.595     108.678      95.985
  H      478.203     110.930      94.324
  H      478.462     108.185      93.433
  H      478.415     107.398      95.713
  H      476.387     109.641      96.224
  H      484.213     110.777      92.570
  H      476.605     107.930      98.050
  H      484.720     109.759      93.884
  H      478.342     108.288      98.163
  P      476.593     105.613      95.661
  C      475.159     105.787      97.822
  O      476.410     105.464      97.249
  O      478.161     105.361      95.433
  O      475.765     104.673      94.844
  H      478.295     104.480      95.034
  H      475.034     105.204      98.736
  H      474.332     105.567      97.145
  H      475.144     106.849      98.076
  H      475.480     109.233     102.780
  H      474.701     110.599     102.018
  H      476.445     110.486     102.038

 3  4  5  6  7  8  9  10  11  12  13  24  27  28  29  30  32 0
 6-311+G(2d,p)
 ****
 34  35 0
 6-311+G(2d,p)
 ****
 1  2  14  15  16  17  18  19  20  21  22  23  25  26 0
 3-21G
 ****
 31  33  36  37  38  39  40  41  42  43  44  45  46 0
 3-21G
 ****


