%nproc=1
%NoSave
%Mem=1900MB
#P OB98/GEN NMR

erre ene a

0 1
  C     -218.853    -187.978      25.321
  O     -217.487    -188.063      25.708
  P     -216.419    -188.558      24.618
  C     -214.544    -187.722      26.200
  O     -215.029    -188.783      25.391
  C     -213.730    -188.250      27.384
  O     -214.623    -188.961      28.288
  C     -212.615    -189.229      26.997
  O     -211.542    -189.035      27.933
  C     -213.244    -190.586      27.236
  O     -212.269    -191.613      27.400
  C     -214.081    -190.286      28.476
  N     -215.426    -194.703      30.674
  C     -214.277    -193.997      30.712
  N     -213.992    -192.823      30.100
  C     -215.050    -192.393      29.389
  C     -216.273    -193.025      29.232
  C     -216.450    -194.238      29.919
  N     -217.624    -194.958      29.895
  N     -217.093    -192.290      28.404
  C     -216.381    -191.233      28.068
  N     -215.150    -191.242      28.658
  O     -216.156    -187.235      23.754
  O     -216.868    -189.689      23.756
  H     -212.720    -192.477      27.378
  H     -216.525    -187.345      22.854
  H     -213.476    -194.422      31.316
  H     -216.709    -190.444      27.401
  H     -213.474    -190.277      29.391
  H     -213.876    -190.855      26.382
  H     -212.245    -189.107      25.970
  H     -213.323    -187.396      27.934
  H     -215.395    -187.158      26.588
  H     -217.715    -195.739      30.522
  H     -218.448    -194.523      29.494
  H     -213.932    -187.049      25.588
  P     -210.054    -188.995      27.333
  C     -208.924    -187.890      29.395
  O     -209.057    -189.050      28.588
  O     -209.915    -187.493      26.796
  O     -209.803    -189.997      26.258
  H     -209.274    -187.464      26.061
  H     -208.743    -188.203      30.427
  H     -209.823    -187.267      29.365
  H     -208.071    -187.306      29.044
  H     -219.438    -187.636      26.149
  H     -219.198    -188.944      25.016
  H     -218.951    -187.291      24.507

 3  4  5  6  7  8  9  10  11  12  22  25  29  30  31  32 0
 6-311+G(2d,p)
 ****
 33  36  37 0
 6-311+G(2d,p)
 ****
 1  2  13  14  15  16  17  18  19  20  21  23  24  26 0
 3-21G
 ****
 27  28  34  35  38  39  40  41  42  43  44  45  46  47  48 0
 3-21G
 ****


