%nproc=1
%NoSave
%Mem=1900MB
#P OB98/GEN NMR

erre ene a

0 1
  C     -568.467    -471.961      57.129
  O     -568.545    -470.577      57.426
  H     -569.471    -472.388      57.158
  H     -567.847    -472.470      57.882
  H     -568.047    -472.106      56.132
  P     -567.158    -469.780      57.492
  C     -567.467    -468.642      55.182
  O     -566.699    -469.541      55.970
  C     -566.570    -467.900      54.197
  O     -565.787    -468.817      53.402
  C     -567.316    -466.998      53.223
  O     -567.616    -465.739      53.811
  C     -566.317    -466.888      52.080
  O     -565.285    -465.929      52.384
  C     -565.726    -468.303      52.046
  N     -565.128    -472.377      49.098
  C     -564.199    -471.652      49.817
  N     -562.906    -472.048      49.721
  N     -564.505    -470.611      50.560
  C     -565.815    -470.296      50.520
  C     -566.838    -470.922      49.843
  C     -566.495    -472.106      49.058
  O     -567.283    -472.836      48.469
  N     -568.053    -470.308      50.065
  C     -567.743    -469.279      50.843
  N     -566.409    -469.230      51.139
  O     -566.117    -470.885      58.015
  O     -567.147    -468.571      58.370
  H     -564.913    -466.126      53.270
  H     -565.488    -470.457      58.627
  H     -564.841    -473.178      48.564
  H     -568.466    -468.566      51.223
  H     -564.665    -468.313      51.748
  H     -566.787    -466.557      51.153
  H     -562.589    -472.631      48.954
  H     -568.233    -467.482      52.853
  H     -562.222    -471.477      50.194
  H     -565.854    -467.303      54.793
  H     -567.964    -467.926      55.845
  H     -568.223    -469.206      54.630
  P     -568.732    -464.824      53.119
  C     -570.715    -466.099      54.225
  O     -570.081    -465.686      53.015
  O     -568.234    -464.724      51.601
  O     -568.889    -463.467      53.731
  H     -567.852    -463.829      51.439
  H     -571.596    -466.661      53.993
  H     -570.983    -465.237      54.799
  H     -570.042    -466.709      54.790

 6  7  8  9  10  11  12  13  14  15  26  29  33  34 0
 6-311+G(2d,p)
 ****
 36  38  39  40  41 0
 6-311+G(2d,p)
 ****
 1  2  3  4  5  16  17  18  19  20  21  22  23  24  25 0
 3-21G
 ****
 27  28  30  31  32  35  37  42  43  44  45  46  47 0
 3-21G
 ****
 48  49 0
 3-21G
 ****


