%nproc=1
%NoSave
%Mem=1900MB
#P OB98/GEN NMR

erre ene a

0 1
  C      169.017      10.037      76.489
  O      168.737      10.652      75.238
  P      167.238      10.577      74.674
  C      166.423      12.537      76.163
  O      166.277      11.167      75.818
  C      165.104      13.123      76.666
  O      165.304      14.524      76.993
  C      163.952      13.054      75.658
  O      162.742      12.880      76.406
  C      163.956      14.438      75.036
  O      162.708      14.762      74.432
  C      164.323      15.282      76.254
  N      163.441      20.316      76.134
  C      162.702      19.286      76.599
  N      163.006      17.972      76.596
  C      164.211      17.763      76.040
  C      165.060      18.710      75.492
  C      164.636      20.048      75.555
  N      165.389      21.101      75.092
  N      166.195      18.109      74.989
  C      166.035      16.824      75.229
  N      164.863      16.572      75.883
  O      166.932       9.006      74.702
  O      167.041      11.144      73.311
  H      162.005      14.636      75.096
  H      166.865       8.664      73.789
  H      161.745      19.554      77.037
  H      166.730      16.046      74.950
  H      163.462      15.453      76.913
  H      164.732      14.495      74.265
  H      164.055      12.257      74.914
  H      164.831      12.610      77.596
  H      166.735      13.091      75.273
  H      165.081      22.036      75.297
  H      166.356      20.932      74.835
  H      167.199      12.641      76.927
  P      161.479      12.288      75.618
  C      161.765      10.213      77.147
  O      161.492      10.706      75.848
  O      161.891      12.454      74.080
  O      160.192      12.983      75.922
  H      161.093      12.546      73.528
  H      161.199       9.291      77.300
  H      161.488      10.932      77.923
  H      162.833       9.992      77.229
  H      170.051      10.171      76.729
  H      168.797       8.992      76.430
  H      168.414      10.486      77.250

 3  4  5  6  7  8  9  10  11  12  22  25  29  30  31  32 0
 6-311+G(2d,p)
 ****
 33  36  37 0
 6-311+G(2d,p)
 ****
 1  2  13  14  15  16  17  18  19  20  21  23  24  26 0
 3-21G
 ****
 27  28  34  35  38  39  40  41  42  43  44  45  46  47  48 0
 3-21G
 ****


