%nproc=1
%NoSave
%Mem=1900MB
#P OB98/GEN NMR

erre ene a

0 1
  C      159.346     -38.883      59.743
  O      160.401     -38.742      60.673
  H      158.876     -39.860      59.895
  H      159.735     -38.840      58.722
  H      158.592     -38.106      59.890
  P      161.198     -37.352      60.733
  C      160.240     -36.786      63.051
  O      160.357     -36.380      61.696
  C      158.968     -36.217      63.677
  O      157.818     -36.828      63.037
  C      158.858     -36.466      65.184
  O      158.266     -35.318      65.793
  C      157.900     -37.641      65.276
  O      157.198     -37.673      66.517
  C      156.994     -37.403      64.070
  N      152.980     -40.427      64.588
  C      153.249     -39.197      65.153
  N      152.324     -38.704      66.005
  N      154.333     -38.507      64.909
  C      155.165     -39.113      64.026
  C      155.014     -40.327      63.401
  C      153.815     -41.087      63.691
  O      153.531     -42.187      63.231
  N      156.091     -40.609      62.596
  C      156.891     -39.568      62.740
  N      156.379     -38.638      63.606
  O      161.549     -36.756      59.408
  O      162.501     -37.689      61.598
  H      156.480     -38.337      66.424
  H      163.273     -37.825      61.019
  H      152.134     -40.920      64.818
  H      157.848     -39.443      62.250
  H      156.178     -36.705      64.292
  H      158.458     -38.580      65.170
  H      151.458     -39.172      66.228
  H      159.821     -36.681      65.653
  H      152.487     -37.792      66.414
  H      158.922     -35.143      63.453
  H      161.117     -36.420      63.598
  H      160.224     -37.882      63.101
  P      159.135     -33.979      65.923
  C      157.743     -32.717      64.161
  O      159.037     -33.177      64.536
  O      160.520     -34.156      66.457
  O      158.249     -33.073      66.909
  H      158.843     -32.491      67.420
  H      157.805     -32.201      63.226
  H      157.370     -32.052      64.911
  H      157.082     -33.553      64.064

 6  7  8  9  10  11  12  13  14  15  26  29  33  34 0
 6-311+G(2d,p)
 ****
 36  38  39  40  41 0
 6-311+G(2d,p)
 ****
 1  2  3  4  5  16  17  18  19  20  21  22  23  24  25 0
 3-21G
 ****
 27  28  30  31  32  35  37  42  43  44  45  46  47 0
 3-21G
 ****
 48  49 0
 3-21G
 ****


