%nproc=1
%NoSave
%Mem=1900MB
#P OB98/GEN NMR

erre ene a

0 1
  C     -181.826     291.231    -276.589
  O     -181.312     289.908    -276.579
  P     -180.957     289.159    -277.954
  C     -182.249     288.401    -280.046
  O     -182.341     288.991    -278.751
  C     -183.311     287.321    -280.220
  O     -182.934     286.156    -279.440
  C     -184.702     287.753    -279.746
  O     -185.683     287.172    -280.613
  C     -184.844     287.119    -278.375
  O     -186.225     286.904    -278.039
  C     -184.006     285.846    -278.535
  N     -184.821     283.087    -274.283
  C     -185.598     283.322    -275.367
  N     -185.329     284.087    -276.445
  C     -184.088     284.594    -276.365
  C     -183.182     284.438    -275.332
  C     -183.590     283.646    -274.242
  N     -182.791     283.399    -273.147
  N     -182.021     285.140    -275.595
  C     -182.215     285.685    -276.771
  N     -183.445     285.378    -277.286
  O     -180.170     287.903    -277.803
  O     -180.174     290.255    -278.815
  H     -186.244     286.448    -277.173
  H     -179.444     289.834    -279.316
  H     -186.571     282.833    -275.358
  H     -181.511     286.316    -277.290
  H     -184.596     285.033    -278.979
  H     -184.410     287.788    -277.614
  H     -184.823     288.845    -279.717
  H     -183.337     287.021    -281.275
  H     -181.257     287.950    -280.149
  H     -183.122     282.724    -272.480
  H     -181.817     283.669    -273.196
  H     -182.357     289.181    -280.811
  P     -187.141     287.858    -280.573
  C     -189.179     287.515    -278.983
  O     -187.793     287.351    -279.199
  O     -187.913     287.600    -281.831
  O     -186.759     289.390    -280.325
  H     -185.881     289.478    -279.886
  H     -189.420     287.150    -277.982
  H     -189.746     286.935    -279.717
  H     -189.453     288.570    -279.056
  H     -181.998     291.554    -275.584
  H     -182.747     291.252    -277.133
  H     -181.120     291.884    -277.058

 3  4  5  6  7  8  9  10  11  12  22  25  29  30  31  32 0
 6-311+G(2d,p)
 ****
 33  36  37 0
 6-311+G(2d,p)
 ****
 1  2  13  14  15  16  17  18  19  20  21  23  24  26 0
 3-21G
 ****
 27  28  34  35  38  39  40  41  42  43  44  45  46  47  48 0
 3-21G
 ****


