%nproc=1
%NoSave
%Mem=1900MB
#P OB98/GEN NMR

erre ene a

0 1
  C     -171.411    -151.266      26.701
  O     -171.822    -151.865      25.488
  H     -172.270    -150.755      27.143
  H     -170.629    -150.528      26.506
  H     -171.049    -152.020      27.405
  P     -170.791    -152.803      24.696
  C     -169.618    -150.800      23.568
  O     -169.470    -151.932      24.416
  C     -168.484    -150.744      22.537
  O     -167.225    -150.572      23.240
  C     -168.372    -152.008      21.677
  O     -168.007    -151.639      20.349
  C     -167.238    -152.778      22.328
  O     -166.579    -153.650      21.411
  C     -166.349    -151.650      22.846
  N     -161.641    -152.753      24.321
  C     -162.105    -152.256      23.117
  N     -161.181    -152.036      22.156
  N     -163.367    -151.998      22.877
  C     -164.174    -152.245      23.939
  C     -163.838    -152.738      25.179
  C     -162.441    -153.038      25.419
  O     -161.973    -153.495      26.462
  N     -164.943    -152.869      25.980
  C     -165.946    -152.460      25.223
  N     -165.534    -152.080      23.973
  O     -171.354    -153.483      23.487
  O     -170.301    -153.862      25.788
  H     -167.268    -154.232      21.025
  H     -170.712    -154.733      25.641
  H     -160.663    -152.943      24.448
  H     -166.984    -152.418      25.531
  H     -165.660    -151.275      22.081
  H     -167.629    -153.385      23.156
  H     -160.194    -152.188      22.283
  H     -169.302    -152.577      21.657
  H     -161.492    -151.643      21.276
  H     -168.624    -149.856      21.912
  H     -169.592    -149.898      24.192
  H     -170.586    -150.852      23.060
  P     -169.112    -150.981      19.388
  C     -169.323    -152.552      17.362
  O     -169.884    -152.156      18.609
  O     -168.630    -149.864      18.525
  O     -170.223    -150.465      20.429
  H     -170.619    -149.637      20.088
  H     -169.916    -153.335      16.937
  H     -168.324    -152.904      17.516
  H     -169.307    -151.715      16.696

 6  7  8  9  10  11  12  13  14  15  26  29  33  34 0
 6-311+G(2d,p)
 ****
 36  38  39  40  41 0
 6-311+G(2d,p)
 ****
 1  2  3  4  5  16  17  18  19  20  21  22  23  24  25 0
 3-21G
 ****
 27  28  30  31  32  35  37  42  43  44  45  46  47 0
 3-21G
 ****
 48  49 0
 3-21G
 ****


