%nproc=1
%NoSave
%Mem=1900MB
#P OB98/GEN NMR

erre ene a

0 1
  C     -569.822     253.627     270.283
  O     -568.748     253.929     269.413
  P     -567.610     252.838     269.142
  C     -565.326     253.709     269.957
  O     -566.510     252.988     270.300
  C     -564.139     253.219     270.798
  O     -564.448     253.327     272.210
  C     -563.786     251.754     270.567
  O     -563.086     251.593     269.345
  C     -562.973     251.456     271.819
  O     -561.617     251.909     271.662
  C     -563.701     252.294     272.883
  N     -564.587     250.593     277.616
  C     -563.527     251.220     277.063
  N     -563.347     251.614     275.784
  C     -564.405     251.261     275.033
  C     -565.538     250.578     275.444
  C     -565.622     250.260     276.808
  N     -566.732     249.670     277.394
  N     -566.388     250.371     274.371
  C     -565.773     250.900     273.346
  N     -564.604     251.505     273.704
  O     -567.060     252.816     267.751
  O     -568.316     251.447     269.498
  H     -561.644     252.879     271.560
  H     -568.322     250.883     268.702
  H     -562.714     251.462     277.746
  H     -566.138     250.891     272.327
  H     -563.000     252.798     273.559
  H     -562.929     250.384     272.046
  H     -564.694     251.143     270.568
  H     -563.282     253.870     270.577
  H     -565.495     254.772     270.148
  H     -566.733     249.622     278.405
  H     -567.618     249.692     276.883
  H     -565.117     253.574     268.892
  P     -563.462     250.382     268.372
  C     -561.784     248.780     269.475
  O     -563.144     249.024     269.164
  O     -562.882     250.463     266.993
  O     -565.065     250.403     268.336
  H     -565.372     250.108     267.466
  H     -561.261     248.419     268.595
  H     -561.734     248.010     270.255
  H     -561.293     249.693     269.840
  H     -570.480     254.469     270.343
  H     -569.440     253.403     271.257
  H     -570.358     252.781     269.907

 3  4  5  6  7  8  9  10  11  12  22  25  29  30  31  32 0
 6-311+G(2d,p)
 ****
 33  36  37 0
 6-311+G(2d,p)
 ****
 1  2  13  14  15  16  17  18  19  20  21  23  24  26 0
 3-21G
 ****
 27  28  34  35  38  39  40  41  42  43  44  45  46  47  48 0
 3-21G
 ****


