%nproc=1
%NoSave
%Mem=1900MB
#P OB98/GEN NMR

erre ene a

0 1
  C      -12.314     142.957     -93.755
  O      -11.248     143.569     -94.465
  P       -9.960     144.145     -93.695
  C       -8.044     142.977     -94.977
  O       -8.860     142.985     -93.813
  C       -7.659     141.542     -95.331
  O       -8.837     140.809     -95.729
  C       -6.683     141.417     -96.492
  O       -5.360     141.743     -96.088
  C       -6.906     139.966     -96.905
  O       -6.191     139.083     -96.026
  C       -8.428     139.807     -96.687
  N       -9.190     139.917     -97.927
  C       -9.260     138.771     -98.721
  O       -8.706     137.724     -98.378
  N       -9.991     138.821     -99.885
  C      -10.576     139.925    -100.234
  N      -11.342     139.896    -101.361
  C      -10.482     141.170     -99.455
  C       -9.786     141.094     -98.321
  O      -10.222     144.614     -92.303
  O       -9.383     145.272     -94.664
  H       -6.515     138.180     -96.210
  H       -9.779     146.166     -94.507
  H      -10.979     142.072     -99.793
  H       -9.685     141.962     -97.679
  H       -8.640     138.834     -96.225
  H       -6.586     139.749     -97.931
  H       -6.979     142.084     -97.313
  H       -7.244     141.065     -94.433
  H      -11.521     138.981    -101.764
  H       -7.134     143.553     -94.771
  H      -12.046     140.602    -101.540
  H       -8.587     143.453     -95.801
  P       -4.680     143.035     -96.750
  C       -4.794     144.253     -94.462
  O       -5.123     144.281     -95.836
  O       -5.498     143.227     -98.113
  O       -3.212     142.907     -96.986
  H       -4.984     142.881     -98.868
  H       -4.947     145.250     -94.045
  H       -3.748     143.967     -94.317
  H       -5.449     143.548     -93.935
  H      -13.069     142.643     -94.446
  H      -12.732     143.659     -93.064
  H      -11.945     142.107     -93.220

 3  4  5  6  7  8  9  10  11  12  13  23  27  28  29  30  32 0
 6-311+G(2d,p)
 ****
 34  35 0
 6-311+G(2d,p)
 ****
 1  2  14  15  16  17  18  19  20  21  22  24  25  26 0
 3-21G
 ****
 31  33  36  37  38  39  40  41  42  43  44  45  46 0
 3-21G
 ****


