%nproc=1
%NoSave
%Mem=1900MB
#P OB98/GEN NMR

erre ene a

0 1
  C     -262.030     147.770     -10.609
  O     -263.403     148.184     -10.552
  P     -263.948     149.015     -11.820
  C     -263.603     147.547     -13.937
  O     -264.495     147.966     -12.906
  C     -264.041     146.220     -14.568
  O     -263.867     145.151     -13.601
  C     -265.506     146.182     -15.026
  O     -265.581     145.408     -16.234
  C     -266.189     145.376     -13.929
  O     -267.403     144.777     -14.384
  C     -265.082     144.385     -13.576
  N     -267.742     140.987     -10.934
  C     -267.763     141.264     -12.290
  N     -268.628     140.544     -13.036
  N     -267.001     142.160     -12.855
  C     -266.159     142.780     -11.988
  C     -266.037     142.589     -10.627
  C     -266.924     141.622     -10.005
  O     -266.991     141.371      -8.808
  N     -265.078     143.406     -10.090
  C     -264.616     144.094     -11.117
  N     -265.253     143.754     -12.290
  O     -262.609     149.598     -12.475
  O     -264.896     150.107     -11.453
  H     -267.158     144.103     -15.052
  H     -262.663     150.572     -12.538
  H     -268.369     140.302     -10.538
  H     -263.854     144.859     -11.068
  H     -265.000     143.596     -14.335
  H     -266.428     146.038     -13.086
  H     -269.198     139.798     -12.673
  H     -265.958     147.163     -15.179
  H     -268.626     140.700     -14.038
  H     -263.373     146.006     -15.409
  H     -262.598     147.433     -13.519
  H     -263.559     148.329     -14.702
  P     -265.218     146.186     -17.594
  C     -262.700     145.701     -18.060
  O     -264.046     145.329     -18.282
  O     -264.469     147.504     -17.081
  O     -266.396     146.493     -18.460
  H     -264.576     148.225     -17.730
  H     -262.604     146.445     -17.261
  H     -262.292     146.122     -18.985
  H     -262.127     144.812     -17.784
  H     -261.783     147.230      -9.719
  H     -261.401     148.632     -10.690
  H     -261.883     147.139     -11.461

 3  4  5  6  7  8  9  10  11  12  23  26  30  31  33  0
 6-311+G(2d,p)
 ****
 35  36  37  38 0
 6-311+G(2d,p)
 ****
 1  2  13  14  15  16  17  18  19  20  21  22  24  25  27  28  29 0
 3-21G
 ****
 32  34  39  40  41  42  43  44  45  46  47  48  49 0
 3-21G
 ****


