%nproc=1
%NoSave
%Mem=1900MB
#P OB98/GEN NMR

erre ene a

0 1
  C      898.842    -326.147    -282.547
  O      899.034    -325.000    -281.749
  H      899.081    -327.034    -281.950
  H      899.504    -326.123    -283.413
  H      897.797    -326.218    -282.876
  P      898.555    -323.600    -282.374
  C      898.745    -322.461    -284.700
  O      899.179    -323.508    -283.845
  C      899.932    -321.851    -285.449
  O      900.817    -322.897    -285.899
  C      899.537    -321.047    -286.691
  O      899.142    -319.726    -286.357
  C      900.861    -321.055    -287.449
  O      901.766    -320.102    -286.854
  C      901.362    -322.483    -287.196
  N      902.006    -324.034    -291.985
  C      902.621    -322.996    -291.297
  N      903.523    -322.257    -291.985
  N      902.355    -322.699    -290.039
  C      901.436    -323.520    -289.487
  C      900.765    -324.582    -290.070
  C      901.067    -324.897    -291.448
  O      900.579    -325.813    -292.100
  N      899.913    -325.184    -289.181
  C      900.032    -324.465    -288.083
  N      900.941    -323.444    -288.207
  O      899.395    -322.512    -281.542
  O      897.087    -323.335    -282.284
  H      902.584    -320.131    -287.366
  H      898.841    -321.722    -281.407
  H      902.240    -324.201    -292.946
  H      899.501    -324.660    -287.157
  H      902.449    -322.548    -287.134
  H      900.742    -320.784    -288.493
  H      903.722    -322.396    -292.954
  H      898.768    -321.557    -287.280
  H      903.998    -321.499    -291.482
  H      900.491    -321.228    -284.742
  H      898.257    -321.682    -284.093
  H      898.014    -322.872    -285.408
  P      897.876    -319.109    -287.131
  C      897.560    -317.943    -289.437
  O      898.466    -318.524    -288.509
  O      897.539    -317.798    -286.289
  O      896.709    -320.020    -287.272
  H      896.600    -317.542    -286.435
  H      898.099    -317.603    -290.296
  H      897.061    -317.115    -288.978
  H      896.838    -318.674    -289.735

 6  7  8  9  10  11  12  13  14  15  26  29  33  34 0
 6-311+G(2d,p)
 ****
 36  38  39  40  41 0
 6-311+G(2d,p)
 ****
 1  2  3  4  5  16  17  18  19  20  21  22  23  24  25 0
 3-21G
 ****
 27  28  30  31  32  35  37  42  43  44  45  46  47 0
 3-21G
 ****
 48  49 0
 3-21G
 ****


