%nproc=1
%NoSave
%Mem=1900MB
#P OB98/GEN NMR

erre ene a

0 1
  C     -165.271    -906.446     683.746
  O     -165.963    -907.611     684.127
  H     -165.802    -905.577     684.159
  H     -165.230    -906.343     682.659
  H     -164.252    -906.454     684.164
  P     -165.536    -909.003     683.442
  C     -166.906    -908.923     681.252
  O     -166.807    -909.455     682.568
  C     -168.308    -909.139     680.671
  O     -168.524    -910.531     680.383
  C     -169.432    -908.751     681.629
  O     -169.536    -907.372     681.866
  C     -170.620    -909.519     681.057
  O     -171.292    -908.821     680.023
  C     -169.944    -910.781     680.479
  N     -170.235    -911.976     681.265
  C     -170.487    -913.127     680.526
  O     -170.487    -913.169     679.296
  N     -170.777    -914.254     681.259
  C     -170.894    -914.313     682.608
  O     -171.201    -915.341     683.201
  C     -170.652    -913.043     683.339
  C     -170.335    -911.954     682.635
  O     -165.031    -910.060     684.377
  O     -164.471    -908.567     682.332
  H     -172.134    -909.307     679.861
  H     -163.940    -909.331     682.022
  H     -170.936    -915.097     680.745
  H     -170.733    -913.055     684.421
  H     -170.149    -911.001     683.143
  H     -170.281    -910.949     679.444
  H     -171.360    -909.737     681.835
  H     -169.211    -909.215     682.606
  H     -168.392    -908.573     679.737
  H     -166.171    -909.443     680.635
  H     -166.657    -907.851     681.272
  P     -169.401    -906.715     683.313
  C     -171.947    -906.994     683.749
  O     -170.842    -906.104     683.742
  O     -168.169    -905.886     683.569
  O     -169.299    -908.023     684.250
  H     -168.702    -907.817     684.995
  H     -172.828    -906.466     684.048
  H     -171.758    -907.791     684.437
  H     -172.088    -907.396     682.767

 6  7  8  9  10  11  12  13  14  15  16  26  31  32  33  34  35 0
 6-311+G(2d,p)
 ****
 36  37 0
 6-311+G(2d,p)
 ****
 1  2  3  4  5  17  18  19  20  21  22  23  24  25 0
 3-21G
 ****
 27  28  29  30  38  39  40  41  42  43  44  45 0
 3-21G
 ****


