%nproc=1
%NoSave
%Mem=1900MB
#P OB98/GEN NMR

erre ene a

0 1
  C     -974.739     490.874     188.762
  O     -975.472     492.032     188.367
  P     -975.350     493.344     189.291
  C     -976.900     494.492     187.560
  O     -976.625     494.246     188.924
  C     -978.384     494.749     187.335
  O     -978.879     495.729     188.273
  C     -978.736     495.284     185.956
  O     -978.838     494.259     184.982
  C     -980.117     495.868     186.224
  O     -981.109     494.832     186.248
  C     -979.942     496.466     187.627
  N     -981.607     501.115     186.280
  C     -982.131     499.875     186.075
  N     -981.618     498.697     186.452
  C     -980.429     498.851     187.071
  C     -979.770     500.048     187.316
  C     -980.409     501.222     186.907
  N     -979.881     502.485     187.129
  N     -978.579     499.803     187.968
  C     -978.528     498.500     188.129
  N     -979.628     497.882     187.619
  O     -974.132     494.137     188.632
  O     -975.126     493.071     190.740
  H     -981.974     495.275     186.358
  H     -973.722     494.743     189.285
  H     -983.065     499.846     185.549
  H     -977.711     497.975     188.628
  H     -980.851     496.333     188.254
  H     -980.432     496.595     185.472
  H     -978.056     496.083     185.646
  H     -978.924     493.794     187.528
  H     -976.578     493.640     186.961
  H     -980.485     503.280     186.965
  H     -979.092     502.573     187.760
  H     -976.312     495.376     187.235
  P     -978.036     494.505     183.599
  C     -977.575     491.938     183.756
  O     -977.898     493.055     182.947
  O     -976.550     494.833     184.099
  O     -978.608     495.569     182.744
  H     -976.073     495.387     183.439
  H     -977.823     491.021     183.232
  H     -978.130     491.972     184.697
  H     -976.493     491.940     183.984
  H     -974.914     490.085     188.061
  H     -975.059     490.564     189.735
  H     -973.694     491.104     188.787

 3  4  5  6  7  8  9  10  11  12  22  25  29  30  31  32 0
 6-311+G(2d,p)
 ****
 33  36  37 0
 6-311+G(2d,p)
 ****
 1  2  13  14  15  16  17  18  19  20  21  23  24  26 0
 3-21G
 ****
 27  28  34  35  38  39  40  41  42  43  44  45  46  47  48 0
 3-21G
 ****


