%nproc=1
%NoSave
%Mem=1900MB
#P OB98/GEN NMR

erre ene a

0 1
  C       33.843     -20.018     588.136
  O       34.137     -19.481     589.414
  P       33.120     -19.661     590.643
  C       30.693     -18.916     591.047
  O       31.885     -18.699     590.300
  C       30.132     -17.587     591.542
  O       29.605     -16.860     590.401
  C       28.973     -17.676     592.532
  O       29.361     -17.852     593.883
  C       28.349     -16.296     592.360
  O       29.118     -15.324     593.094
  C       28.487     -16.061     590.857
  N       24.411     -14.295     588.316
  C       25.451     -13.662     588.911
  N       26.488     -14.206     589.581
  C       26.407     -15.545     589.574
  C       25.416     -16.326     589.010
  C       24.377     -15.647     588.353
  N       23.327     -16.291     587.729
  N       25.668     -17.672     589.225
  C       26.801     -17.689     589.895
  N       27.289     -16.433     590.122
  O       33.736     -19.476     591.986
  O       32.507     -21.123     590.437
  H       28.930     -15.468     594.044
  H       32.084     -21.428     591.265
  H       25.445     -12.580     588.837
  H       27.298     -18.587     590.237
  H       28.717     -15.014     590.610
  H       27.324     -16.245     592.740
  H       28.244     -18.437     592.227
  H       30.954     -16.995     591.959
  H       30.942     -19.546     591.910
  H       22.706     -15.730     587.173
  H       23.390     -17.298     587.616
  H       29.964     -19.447     590.431
  P       28.301     -18.555     594.867
  C       26.061     -17.749     595.955
  O       27.196     -17.433     595.178
  O       28.904     -19.214     596.060
  O       27.536     -19.571     593.894
  H       26.984     -19.152     593.209
  H       25.525     -16.827     596.188
  H       26.353     -18.228     596.901
  H       25.396     -18.413     595.397
  H       34.642     -19.790     587.461
  H       32.934     -19.590     587.770
  H       33.732     -21.079     588.212

 3  4  5  6  7  8  9  10  11  12  22  25  29  30  31  32 0
 6-311+G(2d,p)
 ****
 33  36  37 0
 6-311+G(2d,p)
 ****
 1  2  13  14  15  16  17  18  19  20  21  23  24  26 0
 3-21G
 ****
 27  28  34  35  38  39  40  41  42  43  44  45  46  47  48 0
 3-21G
 ****


