%nproc=1
%NoSave
%Mem=1900MB
#P OB98/GEN NMR

erre ene a

0 1
  C     -274.336    -122.099      -9.135
  O     -274.497    -123.365      -9.755
  P     -275.777    -124.243      -9.333
  C     -276.636    -124.057     -11.782
  O     -276.930    -123.907     -10.396
  C     -277.531    -125.130     -12.398
  O     -278.924    -124.845     -12.146
  C     -277.411    -125.249     -13.909
  O     -276.281    -126.016     -14.305
  C     -278.694    -125.989     -14.248
  O     -278.538    -127.395     -13.988
  C     -279.691    -125.370     -13.257
  N     -284.143    -124.221     -15.363
  C     -283.751    -125.369     -14.699
  N     -284.659    -126.367     -14.638
  N     -282.582    -125.516     -14.139
  C     -281.776    -124.435     -14.282
  C     -282.055    -123.243     -14.920
  C     -283.349    -123.099     -15.547
  O     -283.736    -122.131     -16.194
  N     -280.993    -122.382     -14.855
  C     -280.077    -123.042     -14.180
  N     -280.481    -124.308     -13.852
  O     -276.291    -123.529      -7.996
  O     -275.493    -125.692      -9.121
  H     -277.891    -127.727     -14.645
  H     -276.888    -124.127      -7.506
  H     -285.061    -124.159     -15.783
  H     -279.098    -122.652     -13.922
  H     -280.380    -126.117     -12.846
  H     -278.978    -125.888     -15.298
  H     -285.551    -126.340     -15.103
  H     -277.421    -124.260     -14.387
  H     -284.371    -127.243     -14.209
  H     -277.292    -126.088     -11.915
  H     -275.590    -124.341     -11.899
  H     -276.793    -123.096     -12.287
  P     -275.149    -125.247     -15.151
  C     -273.529    -125.407     -13.129
  O     -274.185    -124.575     -14.063
  O     -275.948    -124.011     -15.778
  O     -274.487    -126.088     -16.195
  H     -275.520    -123.718     -16.607
  H     -272.725    -124.835     -12.651
  H     -273.087    -126.280     -13.619
  H     -274.233    -125.733     -12.358
  H     -273.450    -121.629      -9.508
  H     -274.253    -122.228      -8.076
  H     -275.184    -121.484      -9.354

 3  4  5  6  7  8  9  10  11  12  23  26  30  31 0
 6-311+G(2d,p)
 ****
 33  35  36  37  38 0
 6-311+G(2d,p)
 ****
 1  2  13  14  15  16  17  18  19  20  21  22  24  25 0
 3-21G
 ****
 27  28  29  32  34  39  40  41  42  43  44  45  46  47  48  49 0
 3-21G
 ****


