%nproc=1
%NoSave
%Mem=1900MB
#P OB98/GEN NMR

erre ene a

0 1
  C      292.995     -37.831     130.154
  O      294.410     -37.884     130.131
  H      292.672     -37.480     131.134
  H      292.581     -38.824     129.975
  H      292.630     -37.136     129.390
  P      295.085     -38.341     128.748
  C      296.128     -40.580     127.898
  O      295.654     -39.819     129.005
  C      296.384     -42.028     128.316
  O      297.555     -42.062     129.185
  C      295.224     -42.656     129.117
  O      295.205     -44.072     128.863
  C      295.662     -42.407     130.550
  O      294.933     -43.231     131.435
  C      297.147     -42.701     130.415
  N      299.579     -44.036     134.698
  C      298.968     -44.771     133.738
  N      298.351     -44.339     132.620
  C      298.427     -43.000     132.530
  C      299.020     -42.122     133.421
  C      299.611     -42.697     134.561
  N      300.218     -41.952     135.546
  N      298.872     -40.815     132.986
  C      298.217     -40.907     131.853
  N      297.930     -42.205     131.527
  O      296.406     -37.435     128.670
  O      294.237     -38.198     127.534
  H      295.149     -43.026     132.364
  H      296.220     -36.622     128.166
  H      298.974     -45.847     133.897
  H      297.913     -40.074     131.223
  H      297.364     -43.777     130.317
  H      295.485     -41.370     130.843
  H      294.247     -42.223     128.870
  H      296.626     -42.626     127.429
  H      297.057     -40.119     127.538
  H      295.380     -40.555     127.097
  H      300.594     -42.437     136.350
  H      300.217     -40.938     135.486
  P      293.837     -44.760     128.372
  C      291.893     -46.161     129.417
  O      292.994     -45.288     129.636
  O      294.360     -46.126     127.717
  O      293.047     -43.978     127.367
  H      293.923     -46.267     126.859
  H      291.446     -46.414     130.356
  H      292.235     -47.052     128.933
  H      291.169     -45.674     128.798

 6  7  8  9  10  11  12  13  14  15  25  28  32  33  34  35 0
 6-311+G(2d,p)
 ****
 36  37  40 0
 6-311+G(2d,p)
 ****
 1  2  3  4  5  16  17  18  19  20  21  22  23  24 0
 3-21G
 ****
 26  27  29  30  31  38  39 41  42  43  44  45  46  47  48 0
 3-21G
 ****


