%nproc=1
%NoSave
%Mem=1900MB
#P OB98/GEN NMR

erre ene a

0 1
  C     1505.317     226.351      34.971
  O     1506.216     225.521      35.729
  P     1506.469     224.034      35.182
  C     1508.751     224.728      34.103
  O     1507.438     224.192      33.917
  C     1509.803     223.633      33.929
  O     1509.654     223.022      32.657
  C     1511.218     224.147      33.984
  O     1511.624     224.390      35.330
  C     1511.969     223.003      33.324
  O     1512.340     221.992      34.266
  C     1510.954     222.475      32.285
  N     1511.301     222.797      30.927
  C     1512.137     221.875      30.284
  O     1512.525     220.886      30.881
  N     1512.519     222.141      28.982
  C     1512.123     223.232      28.388
  N     1512.522     223.421      27.118
  C     1511.268     224.225      29.051
  C     1510.894     223.963      30.297
  O     1505.069     223.631      34.559
  O     1506.932     223.065      36.241
  H     1511.504     221.622      34.611
  H     1504.936     222.652      34.580
  H     1510.948     225.112      28.511
  H     1510.266     224.640      30.867
  H     1510.875     221.393      32.371
  H     1512.915     223.355      32.858
  H     1511.327     225.060      33.390
  H     1509.632     222.866      34.704
  H     1513.122     222.728      26.700
  H     1508.800     225.133      35.132
  H     1512.245     224.233      26.562
  H     1508.907     225.542      33.404
  P     1512.397     225.749      35.646
  C     1510.240     226.865      36.506
  O     1511.270     226.902      35.536
  O     1513.235     225.982      34.296
  O     1513.253     225.780      36.863
  H     1513.831     226.746      34.419
  H     1509.644     227.773      36.409
  H     1510.655     226.803      37.506
  H     1509.579     225.999      36.323
  H     1505.236     227.310      35.439
  H     1504.352     225.890      34.933
  H     1505.694     226.470      33.977

 3  4  5  6  7  8  9  10  11  12  13  21  23  27  28  29  30  32 0
 6-311+G(2d,p)
 ****
 34  35 0
 6-311+G(2d,p)
 ****
 1  2  14  15  16  17  18  19  20  22  24  25  26 0
 3-21G
 ****
 31  33  36  37  38  39  40  41  42  43  44  45  46 0
 3-21G
 ****


