%nproc=1
%NoSave
%Mem=1900MB
#P OB98/GEN NMR

erre ene a

0 1
  C     -295.202     321.252    -151.020
  O     -295.513     320.041    -150.341
  P     -296.321     318.921    -151.161
  C     -298.589     319.454    -150.020
  O     -297.836     319.443    -151.227
  C     -299.963     318.829    -150.241
  O     -300.847     319.796    -150.830
  C     -299.972     317.636    -151.186
  O     -299.568     316.441    -150.534
  C     -301.444     317.579    -151.571
  O     -302.186     316.897    -150.546
  C     -301.829     319.068    -151.610
  N     -304.773     320.969    -155.269
  C     -305.109     320.513    -154.012
  N     -306.413     320.603    -153.665
  N     -304.247     320.015    -153.166
  C     -302.976     320.026    -153.630
  C     -302.520     320.448    -154.858
  C     -303.490     320.951    -155.804
  O     -303.263     321.308    -156.960
  N     -301.156     320.315    -154.957
  C     -300.785     319.852    -153.781
  N     -301.857     319.630    -152.951
  O     -296.395     317.702    -150.128
  O     -295.700     318.516    -152.455
  H     -303.074     316.722    -150.905
  H     -296.495     316.859    -150.614
  H     -305.475     321.360    -155.874
  H     -299.763     319.661    -153.492
  H     -302.804     319.241    -151.144
  H     -301.619     317.038    -152.507
  H     -307.097     321.095    -154.219
  H     -299.366     317.834    -152.077
  H     -306.672     320.309    -152.732
  H     -300.371     318.548    -149.261
  H     -298.718     320.489    -149.685
  H     -298.034     318.903    -149.252
  P     -298.889     315.314    -151.460
  C     -301.178     314.085    -151.587
  O     -300.097     314.669    -152.292
  O     -298.488     314.171    -150.414
  O     -297.719     315.792    -152.252
  H     -297.738     313.648    -150.756
  H     -301.403     314.643    -150.672
  H     -300.930     313.052    -151.334
  H     -302.061     314.093    -152.228
  H     -294.667     321.903    -150.361
  H     -296.108     321.728    -151.334
  H     -294.598     321.036    -151.876

 3  4  5  6  7  8  9  10  11  12  23  26  30  31  33  0
 6-311+G(2d,p)
 ****
 35  36  37  38 0
 6-311+G(2d,p)
 ****
 1  2  13  14  15  16  17  18  19  20  21  22  24  25  27  28  29 0
 3-21G
 ****
 32  34  39  40  41  42  43  44  45  46  47  48  49 0
 3-21G
 ****


