%nproc=1
%NoSave
%Mem=1900MB
#P OB98/GEN NMR

erre ene a

0 1
  C      -53.549    -171.680      76.795
  O      -54.392    -170.581      76.447
  P      -55.586    -170.823      75.406
  C      -57.214    -172.202      76.853
  O      -56.955    -170.945      76.234
  C      -58.448    -172.863      76.241
  O      -58.599    -174.225      76.687
  C      -59.748    -172.171      76.615
  O      -59.899    -170.955      75.904
  C      -60.768    -173.248      76.281
  O      -61.079    -173.248      74.879
  C      -60.009    -174.541      76.653
  N      -60.453    -175.130      77.907
  C      -61.513    -176.038      77.817
  O      -62.040    -176.271      76.729
  N      -61.957    -176.648      78.965
  C      -61.397    -176.366      80.102
  N      -61.875    -177.001      81.204
  C      -60.287    -175.406      80.240
  C      -59.874    -174.824      79.116
  O      -55.354    -171.897      74.396
  O      -55.736    -169.389      74.700
  H      -61.520    -174.102      74.701
  H      -56.056    -169.520      73.786
  H      -59.849    -175.210      81.209
  H      -59.065    -174.102      79.128
  H      -60.137    -175.296      75.866
  H      -61.709    -173.100      76.821
  H      -59.763    -171.970      77.695
  H      -58.329    -172.865      75.148
  H      -62.646    -177.647      81.084
  H      -57.361    -172.055      77.926
  H      -61.474    -176.889      82.124
  H      -56.328    -172.838      76.740
  P      -60.536    -169.709      76.684
  C      -58.803    -169.526      78.604
  O      -59.349    -168.943      77.437
  O      -61.341    -170.410      77.882
  O      -61.438    -168.847      75.862
  H      -62.142    -169.894      78.083
  H      -57.831    -169.066      78.802
  H      -58.663    -170.603      78.484
  H      -59.463    -169.334      79.453
  H      -52.808    -171.354      77.495
  H      -53.069    -172.054      75.915
  H      -54.139    -172.456      77.236

 3  4  5  6  7  8  9  10  11  12  13  23  27  28  29  30  32 0
 6-311+G(2d,p)
 ****
 34  35 0
 6-311+G(2d,p)
 ****
 1  2  14  15  16  17  18  19  20  21  22  24  25  26 0
 3-21G
 ****
 31  33  36  37  38  39  40  41  42  43  44  45  46 0
 3-21G
 ****


