%nproc=1
%NoSave
%Mem=1900MB
#P OB98/GEN NMR

erre ene a

0 1
  C     -199.303      44.414    -103.156
  O     -200.169      43.320    -103.385
  H     -199.590      45.237    -103.818
  H     -198.269      44.128    -103.378
  H     -199.380      44.751    -102.118
  P     -199.941      42.017    -102.478
  C     -198.308      39.990    -102.567
  O     -198.637      41.284    -103.063
  C     -196.802      39.758    -102.681
  O     -196.098      40.805    -101.970
  C     -196.322      38.452    -102.063
  O     -196.555      37.342    -102.914
  C     -194.844      38.749    -101.848
  O     -194.083      38.532    -103.042
  C     -194.853      40.244    -101.500
  N     -191.578      40.067     -97.594
  C     -191.419      39.844     -98.919
  N     -192.343      39.931     -99.902
  C     -193.534      40.301     -99.394
  C     -193.847      40.557     -98.070
  C     -192.800      40.431     -97.141
  N     -192.971      40.622     -95.787
  N     -195.189      40.867     -97.939
  C     -195.671      40.808     -99.167
  N     -194.708      40.477    -100.078
  O     -201.145      41.059    -102.923
  O     -199.929      42.257    -101.006
  H     -193.141      38.581    -102.787
  H     -201.896      41.169    -102.305
  H     -190.418      39.552     -99.229
  H     -196.708      40.983     -99.440
  H     -194.045      40.791    -102.004
  H     -194.415      38.112    -101.071
  H     -196.795      38.295    -101.084
  H     -196.520      39.819    -103.739
  H     -198.835      39.234    -103.156
  H     -198.632      39.919    -101.521
  H     -192.177      40.494     -95.177
  H     -193.899      40.787     -95.431
  P     -196.663      35.884    -102.261
  C     -195.022      34.249    -101.079
  O     -195.274      35.574    -101.518
  O     -196.640      34.912    -103.536
  O     -197.879      35.669    -101.417
  H     -197.545      34.618    -103.757
  H     -194.063      34.206    -100.607
  H     -195.036      33.586    -101.919
  H     -195.777      33.955    -100.380

 6  7  8  9  10  11  12  13  14  15  25  28  32  33  34  35 0
 6-311+G(2d,p)
 ****
 36  37  40 0
 6-311+G(2d,p)
 ****
 1  2  3  4  5  16  17  18  19  20  21  22  23  24 0
 3-21G
 ****
 26  27  29  30  31  38  39 41  42  43  44  45  46  47  48 0
 3-21G
 ****


