%nproc=1
%NoSave
%Mem=1900MB
#P OB98/GEN NMR

erre ene a

0 1
  C     -350.001     124.336    -107.820
  O     -349.637     125.131    -106.712
  H     -351.070     124.471    -108.008
  H     -349.814     123.283    -107.596
  H     -349.449     124.625    -108.718
  P     -348.091     125.474    -106.487
  C     -347.408     123.614    -104.834
  O     -347.693     124.997    -105.007
  C     -347.049     123.283    -103.384
  O     -345.794     123.902    -103.027
  C     -348.082     123.819    -102.393
  O     -349.214     122.992    -102.189
  C     -347.254     123.940    -101.116
  O     -347.218     122.688    -100.410
  C     -345.864     124.298    -101.647
  N     -344.342     128.110     -98.604
  C     -344.598     126.791     -98.282
  N     -344.490     126.462     -96.977
  N     -344.944     125.889     -99.164
  C     -345.105     126.386    -100.413
  C     -344.895     127.674    -100.849
  C     -344.458     128.653     -99.875
  O     -344.225     129.835    -100.107
  N     -345.157     127.800    -102.193
  C     -345.597     126.611    -102.550
  N     -345.558     125.710    -101.511
  O     -348.076     127.072    -106.351
  O     -347.168     125.019    -107.577
  H     -346.674     122.805     -99.608
  H     -347.208     127.421    -106.621
  H     -344.051     128.754     -97.890
  H     -345.927     126.342    -103.547
  H     -345.078     123.745    -101.115
  H     -347.676     124.678    -100.430
  H     -344.340     127.145     -96.250
  H     -348.407     124.822    -102.687
  H     -344.921     125.589     -96.667
  H     -346.917     122.198    -103.284
  H     -346.566     123.382    -105.489
  H     -348.255     123.008    -105.167
  P     -350.381     123.463    -101.201
  C     -350.450     121.083    -100.154
  O     -351.167     122.144    -100.742
  O     -351.406     124.193    -102.189
  O     -349.945     124.357    -100.092
  H     -351.255     125.159    -102.179
  H     -351.124     120.289     -99.910
  H     -349.969     121.428     -99.263
  H     -349.713     120.726    -100.842

 6  7  8  9  10  11  12  13  14  15  26  29  33  34 0
 6-311+G(2d,p)
 ****
 36  38  39  40  41 0
 6-311+G(2d,p)
 ****
 1  2  3  4  5  16  17  18  19  20  21  22  23  24  25 0
 3-21G
 ****
 27  28  30  31  32  35  37  42  43  44  45  46  47 0
 3-21G
 ****
 48  49 0
 3-21G
 ****


