%nproc=1
%NoSave
%Mem=1900MB
#P OB98/GEN NMR

erre ene a

0 1
  C      -27.825     -81.190     -98.038
  O      -28.356     -82.408     -98.520
  H      -27.119     -80.798     -98.776
  H      -27.292     -81.360     -97.099
  H      -28.624     -80.458     -97.886
  P      -29.541     -83.068     -97.667
  C      -29.306     -85.184     -99.207
  O      -29.462     -84.657     -97.894
  C      -28.410     -86.422     -99.168
  O      -27.083     -86.092     -98.712
  C      -28.878     -87.488     -98.191
  O      -30.041     -88.156     -98.621
  C      -27.640     -88.372     -98.140
  O      -27.570     -89.232     -99.285
  C      -26.508     -87.316     -98.179
  N      -25.898     -87.101     -96.872
  C      -25.391     -88.242     -96.241
  O      -25.465     -89.342     -96.791
  N      -24.841     -88.112     -94.989
  C      -24.777     -86.946     -94.430
  N      -24.231     -86.887     -93.185
  C      -25.279     -85.713     -95.068
  C      -25.823     -85.864     -96.276
  O      -30.842     -82.658     -98.502
  O      -29.582     -82.680     -96.225
  H      -26.715     -89.703     -99.223
  H      -30.796     -82.902     -99.442
  H      -25.196     -84.760     -94.566
  H      -26.216     -85.010     -96.816
  H      -25.717     -87.624     -98.875
  H      -27.632     -89.016     -97.258
  H      -29.018     -87.051     -97.193
  H      -28.335     -86.818    -100.189
  H      -23.919     -87.756     -92.767
  H      -28.891     -84.430     -99.883
  H      -24.161     -86.041     -92.640
  H      -30.300     -85.449     -99.576
  P      -31.025     -88.847     -97.559
  C      -32.585     -89.379     -99.538
  O      -31.916     -89.892     -98.390
  O      -31.806     -87.904     -96.709
  O      -30.050     -89.815     -96.734
  H      -29.598     -90.491     -97.269
  H      -33.143     -90.163    -100.006
  H      -31.864     -88.993    -100.228
  H      -33.251     -88.595     -99.242

 6  7  8  9  10  11  12  13  14  15  16  26  30  31  32  33  35 0
 6-311+G(2d,p)
 ****
 37  38 0
 6-311+G(2d,p)
 ****
 1  2  3  4  5  17  18  19  20  21  22  23  24  25 0
 3-21G
 ****
 27  28  29  34  36  39  40  41  42  43  44  45  46 0
 3-21G
 ****


