%nproc=1
%NoSave
%Mem=1900MB
#P OB98/GEN NMR

erre ene a

0 1
  C     -214.484     -39.474    -110.828
  O     -215.419     -38.613    -111.445
  H     -213.773     -39.819    -111.585
  H     -214.995     -40.346    -110.404
  H     -213.932     -38.949    -110.045
  P     -216.500     -37.858    -110.529
  C     -218.658     -38.512    -109.284
  O     -217.507     -38.978    -109.980
  C     -219.600     -39.684    -109.000
  O     -218.898     -40.731    -108.291
  C     -220.795     -39.319    -108.125
  O     -221.762     -38.599    -108.862
  C     -221.231     -40.696    -107.651
  O     -221.993     -41.374    -108.668
  C     -219.865     -41.394    -107.442
  N     -219.433     -41.382    -106.043
  C     -219.828     -42.469    -105.268
  O     -220.510     -43.397    -105.705
  N     -219.456     -42.428    -103.948
  C     -218.819     -41.388    -103.328
  O     -218.702     -41.301    -102.109
  C     -218.356     -40.309    -104.212
  C     -218.695     -40.345    -105.503
  O     -217.151     -36.664    -111.143
  O     -215.662     -37.458    -109.218
  H     -215.414     -36.512    -109.269
  H     -222.107     -42.294    -108.355
  H     -219.782     -43.187    -103.366
  H     -217.792     -39.494    -103.770
  H     -218.387     -39.543    -106.168
  H     -219.915     -42.439    -107.775
  H     -221.858     -40.654    -106.760
  H     -220.462     -38.734    -107.255
  H     -219.934     -40.093    -109.964
  H     -219.175     -37.776    -109.911
  H     -218.347     -38.031    -108.353
  P     -223.090     -38.026    -108.172
  C     -225.336     -38.946    -107.351
  O     -224.010     -39.271    -107.754
  O     -223.796     -36.959    -108.942
  O     -222.574     -37.464    -106.756
  H     -222.871     -36.538    -106.657
  H     -225.861     -39.843    -107.095
  H     -225.842     -38.453    -108.155
  H     -225.301     -38.298    -106.500

 6  7  8  9  10  11  12  13  14  15  16  27  31  32  33  34  35 0
 6-311+G(2d,p)
 ****
 36  37 0
 6-311+G(2d,p)
 ****
 1  2  3  4  5  17  18  19  20  21  22  23  24  25 0
 3-21G
 ****
 26  28  29  30  38  39  40  41  42  43  44  45 0
 3-21G
 ****


