%nproc=1
%NoSave
%Mem=1900MB
#P OB98/GEN NMR

erre ene a

0 1
  C       34.003    -224.664     -52.937
  O       33.577    -223.326     -52.754
  H       33.668    -225.258     -52.084
  H       35.094    -224.706     -52.992
  H       33.565    -225.077     -53.851
  P       33.996    -222.281     -53.898
  C       36.284    -221.955     -55.075
  O       35.599    -222.189     -53.855
  C       37.791    -221.890     -54.836
  O       38.262    -223.106     -54.215
  C       38.620    -221.695     -56.098
  O       38.675    -220.327     -56.471
  C       39.971    -222.236     -55.654
  O       40.706    -221.258     -54.890
  C       39.564    -223.427     -54.773
  N       42.100    -227.662     -55.834
  C       42.442    -226.599     -55.024
  N       43.666    -226.647     -54.450
  N       41.662    -225.574     -54.803
  C       40.484    -225.647     -55.466
  C       40.023    -226.652     -56.284
  C       40.887    -227.797     -56.497
  O       40.617    -228.798     -57.153
  N       38.769    -226.371     -56.761
  C       38.488    -225.182     -56.262
  N       39.505    -224.693     -55.484
  O       33.533    -220.868     -53.300
  O       33.400    -222.530     -55.242
  H       40.130    -220.891     -54.200
  H       33.286    -220.276     -54.036
  H       42.738    -228.429     -55.954
  H       37.570    -224.637     -56.436
  H       40.254    -223.570     -53.932
  H       40.600    -222.503     -56.506
  H       44.411    -227.213     -54.839
  H       38.232    -222.314     -56.919
  H       43.933    -225.862     -53.873
  H       37.975    -221.072     -54.126
  H       35.945    -221.005     -55.498
  H       36.050    -222.763     -55.778
  P       39.045    -219.983     -57.995
  C       40.534    -221.232     -59.727
  O       40.319    -220.885     -58.366
  O       39.655    -218.506     -57.904
  O       37.901    -220.063     -58.947
  H       39.663    -218.092     -58.788
  H       41.417    -221.831     -59.807
  H       40.653    -220.341     -60.308
  H       39.694    -221.785     -60.091

 6  7  8  9  10  11  12  13  14  15  26  29  33  34 0
 6-311+G(2d,p)
 ****
 36  38  39  40  41 0
 6-311+G(2d,p)
 ****
 1  2  3  4  5  16  17  18  19  20  21  22  23  24  25 0
 3-21G
 ****
 27  28  30  31  32  35  37  42  43  44  45  46  47 0
 3-21G
 ****
 48  49 0
 3-21G
 ****


