%nproc=1
%NoSave
%Mem=1900MB
#P OB98/GEN NMR

erre ene a

0 1
  C     -320.188     181.503    -128.315
  O     -320.447     180.388    -129.176
  P     -320.108     180.432    -130.744
  C     -322.126     179.355    -131.912
  O     -320.774     179.179    -131.502
  C     -322.752     178.078    -132.499
  O     -321.886     177.497    -133.515
  C     -323.039     176.967    -131.480
  O     -324.187     176.271    -131.969
  C     -321.796     176.100    -131.595
  O     -321.975     174.785    -131.083
  C     -321.557     176.158    -133.102
  N     -317.756     172.772    -132.526
  C     -319.064     172.716    -132.198
  N     -320.022     173.640    -132.413
  C     -319.525     174.697    -133.082
  C     -318.216     174.889    -133.496
  C     -317.302     173.866    -133.181
  N     -315.957     173.938    -133.472
  N     -318.075     176.110    -134.127
  C     -319.277     176.648    -134.085
  N     -320.189     175.831    -133.466
  O     -318.655     180.624    -131.051
  O     -320.948     181.682    -131.295
  H     -321.168     174.270    -131.277
  H     -320.379     182.220    -131.877
  H     -319.381     171.815    -131.678
  H     -319.540     177.628    -134.462
  H     -322.221     175.469    -133.637
  H     -320.976     176.566    -131.034
  H     -323.205     177.342    -130.469
  H     -323.677     178.373    -133.012
  H     -322.162     180.154    -132.661
  H     -315.367     173.197    -133.123
  H     -315.580     174.795    -133.839
  H     -322.715     179.682    -131.045
  P     -325.672     176.682    -131.527
  C     -325.960     174.676    -129.961
  O     -326.426     175.324    -131.134
  O     -326.401     177.546    -132.504
  O     -325.485     177.423    -130.117
  H     -326.273     177.962    -129.925
  H     -325.021     174.159    -130.182
  H     -326.705     173.943    -129.642
  H     -325.798     175.398    -129.153
  H     -320.488     181.260    -127.317
  H     -320.741     182.353    -128.656
  H     -319.142     181.729    -128.328

 3  4  5  6  7  8  9  10  11  12  22  25  29  30  31  32 0
 6-311+G(2d,p)
 ****
 33  36  37 0
 6-311+G(2d,p)
 ****
 1  2  13  14  15  16  17  18  19  20  21  23  24  26 0
 3-21G
 ****
 27  28  34  35  38  39  40  41  42  43  44  45  46  47  48 0
 3-21G
 ****


