%nproc=1
%NoSave
%Mem=1900MB
#P OB98/GEN NMR

erre ene a

0 1
  C       59.538     -29.538      72.443
  O       60.319     -30.411      73.239
  P       60.759     -29.887      74.692
  C       59.099     -31.540      75.827
  O       59.543     -30.196      75.687
  C       59.701     -32.165      77.083
  O       59.548     -31.272      78.203
  C       59.051     -33.473      77.513
  O       59.466     -34.549      76.687
  C       59.527     -33.559      78.959
  O       60.884     -34.029      79.004
  C       59.463     -32.087      79.404
  N       56.981     -32.454      83.866
  C       58.187     -32.914      83.464
  N       58.769     -32.795      82.254
  C       57.977     -32.114      81.411
  C       56.717     -31.605      81.670
  C       56.215     -31.793      82.968
  N       54.982     -31.327      83.372
  N       56.197     -30.986      80.553
  C       57.135     -31.110      79.637
  N       58.235     -31.770      80.111
  O       60.714     -28.297      74.534
  O       62.100     -30.366      75.154
  H       61.448     -33.325      78.624
  H       61.409     -27.872      75.073
  H       58.762     -33.447      84.217
  H       57.065     -30.735      78.625
  H       60.300     -31.807      80.053
  H       58.924     -34.236      79.572
  H       57.958     -33.385      77.484
  H       60.774     -32.313      76.906
  H       59.416     -32.122      74.956
  H       54.639     -31.634      84.269
  H       54.358     -30.961      82.664
  H       58.006     -31.550      75.869
  P       58.325     -35.349      75.892
  C       59.401     -34.577      73.691
  O       58.227     -34.579      74.485
  O       57.003     -34.864      76.647
  O       58.529     -36.822      75.815
  H       56.975     -33.897      76.750
  H       59.182     -34.071      72.747
  H       59.717     -35.602      73.480
  H       60.200     -34.036      74.205
  H       59.317     -30.009      71.508
  H       60.082     -28.633      72.267
  H       58.625     -29.312      72.953

 3  4  5  6  7  8  9  10  11  12  22  25  29  30  31  32 0
 6-311+G(2d,p)
 ****
 33  36  37 0
 6-311+G(2d,p)
 ****
 1  2  13  14  15  16  17  18  19  20  21  23  24  26 0
 3-21G
 ****
 27  28  34  35  38  39  40  41  42  43  44  45  46  47  48 0
 3-21G
 ****


