%nproc=1
%NoSave
%Mem=1900MB
#P OB98/GEN NMR

erre ene a

0 1
  C      599.734     322.051     883.608
  O      599.177     323.132     884.335
  H      600.345     321.453     884.287
  H      600.363     322.422     882.795
  H      598.934     321.415     883.206
  P      598.319     324.227     883.541
  C      600.193     326.005     883.745
  O      598.843     325.662     884.036
  C      600.388     327.531     883.804
  O      599.567     328.136     882.757
  C      599.961     328.167     885.140
  O      600.785     329.326     885.340
  C      598.539     328.570     884.839
  O      598.036     329.458     885.813
  C      598.684     329.083     883.406
  N      597.404     329.187     882.717
  C      596.839     330.467     882.657
  O      597.409     331.418     883.181
  N      595.627     330.617     882.027
  C      595.008     329.581     881.563
  N      593.801     329.801     880.972
  C      595.539     328.215     881.653
  C      596.738     328.082     882.234
  O      596.843     324.054     883.587
  O      598.881     324.143     882.043
  H      597.077     329.660     885.637
  H      598.235     323.674     881.477
  H      594.973     327.370     881.269
  H      597.219     327.117     882.353
  H      599.170     330.073     883.390
  H      597.873     327.691     884.860
  H      600.057     327.478     885.986
  H      601.442     327.756     883.565
  H      593.466     330.763     880.941
  H      600.418     325.639     882.743
  H      593.219     329.066     880.590
  H      600.870     325.523     884.466
  P      602.254     329.253     886.010
  C      601.537     330.050     888.359
  O      602.330     330.314     887.204
  O      603.371     329.357     885.011
  O      602.299     327.836     886.756
  H      603.216     327.506     886.741
  H      601.680     330.831     889.076
  H      601.831     329.115     888.788
  H      600.505     330.006     888.080

 6  7  8  9  10  11  12  13  14  15  16  26  30  31  32  33  35 0
 6-311+G(2d,p)
 ****
 37  38 0
 6-311+G(2d,p)
 ****
 1  2  3  4  5  17  18  19  20  21  22  23  24  25 0
 3-21G
 ****
 27  28  29  34  36  39  40  41  42  43  44  45  46 0
 3-21G
 ****


