%nproc=1
%NoSave
%Mem=1900MB
#P OB98/GEN NMR

erre ene a

0 1
  C      128.843    -298.647    -449.674
  O      128.981    -299.989    -450.095
  H      129.020    -297.993    -450.530
  H      129.576    -298.418    -448.895
  H      127.833    -298.474    -449.296
  P      128.871    -301.111    -448.950
  C      126.274    -300.950    -449.143
  O      127.417    -300.856    -448.308
  C      125.365    -302.081    -448.661
  O      125.995    -303.361    -448.872
  C      125.040    -302.032    -447.169
  O      124.050    -301.070    -446.840
  C      124.536    -303.451    -446.970
  O      123.212    -303.575    -447.526
  C      125.564    -304.244    -447.799
  N      126.719    -304.688    -447.009
  C      127.282    -305.923    -447.353
  O      126.811    -306.584    -448.278
  N      128.342    -306.399    -446.624
  C      128.814    -305.695    -445.647
  N      129.863    -306.214    -444.951
  C      128.264    -304.385    -445.252
  C      127.232    -303.947    -445.966
  O      129.857    -300.578    -447.808
  O      129.124    -302.516    -449.382
  H      122.890    -304.460    -447.284
  H      129.753    -301.122    -446.988
  H      128.689    -303.838    -444.416
  H      126.770    -302.989    -445.733
  H      125.103    -305.127    -448.263
  H      124.471    -303.743    -445.925
  H      125.940    -301.889    -446.565
  H      124.453    -302.054    -449.271
  H      130.181    -307.146    -445.208
  H      126.613    -301.148    -450.167
  H      130.205    -305.821    -444.086
  H      125.720    -300.008    -449.128
  P      123.831    -300.744    -445.281
  C      125.922    -299.194    -445.184
  O      125.269    -300.354    -444.685
  O      123.547    -302.182    -444.647
  O      122.729    -299.771    -444.994
  H      122.913    -302.119    -443.904
  H      126.863    -299.073    -444.689
  H      125.311    -298.335    -445.003
  H      126.084    -299.301    -446.236

 6  7  8  9  10  11  12  13  14  15  16  26  30  31  32  33  35 0
 6-311+G(2d,p)
 ****
 37  38 0
 6-311+G(2d,p)
 ****
 1  2  3  4  5  17  18  19  20  21  22  23  24  25 0
 3-21G
 ****
 27  28  29  34  36  39  40  41  42  43  44  45  46 0
 3-21G
 ****


