%nproc=1
%NoSave
%Mem=1900MB
#P OB98/GEN NMR

erre ene a

0 1
  C     -608.988    -165.696    -178.961
  O     -607.708    -165.250    -178.557
  H     -609.356    -165.041    -179.751
  H     -609.682    -165.648    -178.117
  H     -608.935    -166.720    -179.347
  P     -606.874    -166.202    -177.568
  C     -605.035    -166.630    -179.357
  O     -606.018    -167.189    -178.497
  C     -604.424    -167.719    -180.235
  O     -605.482    -168.321    -181.031
  C     -603.349    -167.203    -181.213
  O     -602.336    -168.211    -181.337
  C     -604.105    -167.096    -182.525
  O     -603.270    -167.142    -183.671
  C     -605.058    -168.286    -182.410
  N     -606.200    -168.182    -183.313
  C     -605.994    -168.529    -184.651
  O     -604.952    -168.994    -185.104
  N     -607.066    -168.312    -185.489
  C     -608.277    -167.781    -185.133
  O     -609.187    -167.598    -185.931
  C     -608.424    -167.433    -183.712
  C     -607.397    -167.641    -182.887
  O     -608.003    -167.155    -176.953
  O     -606.085    -165.496    -176.513
  H     -608.375    -166.764    -176.140
  H     -602.700    -167.927    -183.590
  H     -606.927    -168.551    -186.460
  H     -609.360    -166.999    -183.395
  H     -607.474    -167.376    -181.835
  H     -604.517    -169.229    -182.612
  H     -604.666    -166.150    -182.553
  H     -602.894    -166.258    -180.914
  H     -604.022    -168.505    -179.591
  H     -604.244    -166.170    -178.753
  H     -605.503    -165.852    -179.976
  P     -601.122    -168.167    -180.285
  C     -601.772    -170.461    -179.206
  O     -601.592    -169.065    -179.036
  O     -601.226    -166.661    -179.753
  O     -599.809    -168.537    -180.896
  H     -602.137    -166.342    -179.694
  H     -602.084    -170.896    -178.279
  H     -600.849    -170.905    -179.516
  H     -602.519    -170.636    -179.951

 6  7  8  9  10  11  12  13  14  15  16  27  31  32  33  34  35 0
 6-311+G(2d,p)
 ****
 36  37 0
 6-311+G(2d,p)
 ****
 1  2  3  4  5  17  18  19  20  21  22  23  24  25 0
 3-21G
 ****
 26  28  29  30  38  39  40  41  42  43  44  45 0
 3-21G
 ****


