%nproc=1
%NoSave
%Mem=1900MB
#P OB98/GEN NMR

erre ene a

0 1
  C      123.088    -913.707     910.648
  O      123.762    -913.268     909.484
  H      123.054    -914.803     910.642
  H      122.072    -913.325     910.659
  H      123.621    -913.389     911.548
  P      124.121    -911.713     909.339
  C      126.490    -911.624     908.329
  O      125.095    -911.578     908.068
  C      127.277    -911.754     907.006
  O      126.963    -913.050     906.409
  C      126.929    -910.677     905.967
  O      128.114    -910.475     905.165
  C      125.859    -911.402     905.152
  O      125.540    -910.735     903.947
  C      126.484    -912.790     905.066
  N      125.600    -913.865     904.616
  C      125.656    -914.235     903.280
  O      126.417    -913.720     902.437
  N      124.808    -915.219     902.892
  C      123.906    -915.881     903.716
  O      123.189    -916.792     903.309
  C      123.893    -915.445     905.115
  C      124.726    -914.466     905.490
  O      124.595    -911.042     910.576
  O      122.760    -911.060     908.796
  H      122.288    -910.612     909.532
  H      124.915    -911.294     903.431
  H      124.838    -915.518     901.936
  H      123.196    -915.924     905.765
  H      124.738    -914.122     906.522
  H      127.371    -912.764     904.425
  H      124.927    -911.413     905.723
  H      126.614    -909.735     906.398
  H      128.339    -911.763     907.237
  H      126.701    -912.492     908.972
  H      126.790    -910.717     908.846
  P      128.551    -909.038     904.594
  C      130.542    -908.885     906.260
  O      130.117    -908.836     904.882
  O      127.709    -907.900     905.069
  O      128.473    -909.182     902.997
  H      128.323    -908.294     902.598
  H      131.600    -908.737     906.312
  H      130.294    -909.839     906.676
  H      130.047    -908.115     906.814

 6  7  8  9  10  11  12  13  14  15  16  27  31  32  33  34  35 0
 6-311+G(2d,p)
 ****
 36  37 0
 6-311+G(2d,p)
 ****
 1  2  3  4  5  17  18  19  20  21  22  23  24  25 0
 3-21G
 ****
 26  28  29  30  38  39  40  41  42  43  44  45 0
 3-21G
 ****


