%nproc=1
%NoSave
%Mem=1900MB
#P OB98/GEN NMR

erre ene a

0 1
  C      -64.608      34.257     -53.040
  O      -63.563      33.320     -52.869
  H      -65.554      33.716     -53.130
  H      -64.449      34.841     -53.951
  H      -64.661      34.925     -52.177
  P      -62.073      33.918     -52.823
  C      -60.965      35.606     -51.169
  O      -62.165      35.068     -51.705
  C      -61.202      37.042     -50.715
  O      -61.582      37.873     -51.833
  C      -62.324      37.195     -49.694
  O      -61.929      36.837     -48.380
  C      -62.602      38.681     -49.815
  O      -61.571      39.422     -49.137
  C      -62.512      38.878     -51.346
  N      -63.805      38.750     -52.019
  C      -64.666      39.851     -51.941
  O      -64.335      40.862     -51.323
  N      -65.901      39.770     -52.539
  C      -66.244      38.689     -53.169
  N      -67.483      38.659     -53.730
  C      -65.363      37.514     -53.290
  C      -64.176      37.611     -52.699
  O      -61.961      34.759     -54.180
  O      -60.976      32.928     -52.620
  H      -60.720      39.132     -49.514
  H      -61.117      35.272     -54.187
  H      -65.698      36.632     -53.816
  H      -63.475      36.784     -52.744
  H      -62.088      39.859     -51.590
  H      -63.555      38.976     -49.373
  H      -63.222      36.645     -49.996
  H      -60.253      37.433     -50.325
  H      -68.088      39.455     -53.578
  H      -60.196      35.576     -51.948
  H      -67.902      37.806     -54.079
  H      -60.633      35.005     -50.316
  P      -63.085      36.470     -47.329
  C      -64.988      34.703     -47.298
  O      -64.120      35.505     -48.085
  O      -63.896      37.842     -47.193
  O      -62.599      35.972     -46.003
  H      -64.181      37.993     -46.271
  H      -65.614      34.119     -47.940
  H      -65.597      35.333     -46.684
  H      -64.408      34.053     -46.677

 6  7  8  9  10  11  12  13  14  15  16  26  30  31  32  33  35 0
 6-311+G(2d,p)
 ****
 37  38 0
 6-311+G(2d,p)
 ****
 1  2  3  4  5  17  18  19  20  21  22  23  24  25 0
 3-21G
 ****
 27  28  29  34  36  39  40  41  42  43  44  45  46 0
 3-21G
 ****


