%nproc=1
%NoSave
%Mem=1900MB
#P OB98/GEN NMR

erre ene a

0 1
  C     -768.316     329.471    -107.835
  O     -768.258     330.442    -106.811
  H     -767.668     328.632    -107.558
  H     -767.976     329.875    -108.788
  H     -769.344     329.086    -107.942
  P     -768.927     331.875    -107.098
  C     -769.460     331.698    -104.584
  O     -769.111     332.560    -105.662
  C     -770.354     332.413    -103.572
  O     -771.560     332.889    -104.219
  C     -770.850     331.512    -102.432
  O     -769.821     331.133    -101.528
  C     -772.054     332.276    -101.925
  O     -771.741     333.275    -100.960
  C     -772.596     332.941    -103.210
  N     -773.834     332.331    -103.676
  C     -774.952     332.532    -102.860
  O     -774.916     333.160    -101.805
  N     -776.111     331.943    -103.284
  C     -776.248     331.142    -104.387
  O     -777.307     330.602    -104.693
  C     -775.028     330.943    -105.191
  C     -773.895     331.534    -104.806
  O     -770.175     331.856    -107.933
  O     -767.737     332.720    -107.751
  H     -772.567     333.734    -100.731
  H     -768.083     333.522    -108.219
  H     -776.936     332.080    -102.719
  H     -775.109     330.317    -106.069
  H     -772.982     331.410    -105.389
  H     -772.790     334.004    -103.029
  H     -772.781     331.608    -101.450
  H     -771.226     330.583    -102.880
  H     -769.822     333.289    -103.178
  H     -768.530     331.395    -104.085
  H     -769.962     330.806    -104.975
  P     -769.801     329.708    -100.808
  C     -767.327     330.211    -100.179
  O     -768.585     329.707     -99.746
  O     -770.008     328.501    -101.668
  O     -771.095     329.833     -99.837
  H     -771.491     328.942     -99.765
  H     -766.622     330.149     -99.376
  H     -767.436     331.232    -100.479
  H     -766.976     329.631    -101.007

 6  7  8  9  10  11  12  13  14  15  16  26  31  32  33  34  35 0
 6-311+G(2d,p)
 ****
 36  37 0
 6-311+G(2d,p)
 ****
 1  2  3  4  5  17  18  19  20  21  22  23  24  25 0
 3-21G
 ****
 27  28  29  30  38  39  40  41  42  43  44  45 0
 3-21G
 ****


