%nproc=1
%NoSave
%Mem=1900MB
#P OB98/GEN NMR

erre ene a

0 1
  C      210.124     558.110      55.069
  O      209.948     559.458      55.475
  P      210.225     559.808      57.020
  C      207.721     560.460      57.261
  O      209.078     560.831      57.482
  C      206.777     561.618      57.592
  O      205.445     561.297      57.103
  C      206.649     561.929      59.093
  O      206.478     563.349      59.214
  C      205.371     561.184      59.461
  O      204.796     561.600      60.689
  C      204.537     561.449      58.217
  N      199.598     561.075      56.929
  C      200.469     562.110      56.885
  N      201.777     562.138      57.233
  C      202.172     560.922      57.662
  C      201.397     559.776      57.784
  C      200.052     559.882      57.387
  N      199.165     558.823      57.446
  N      202.145     558.733      58.283
  C      203.348     559.239      58.470
  N      203.416     560.545      58.086
  O      211.530     560.732      56.949
  O      210.424     558.622      57.914
  H      204.081     560.991      60.946
  H      212.140     560.544      57.688
  H      200.055     563.048      56.511
  H      204.192     558.703      58.882
  H      204.148     562.478      58.190
  H      205.594     560.119      59.562
  H      207.523     561.623      59.681
  H      207.117     562.510      57.052
  H      207.469     559.617      57.908
  H      198.191     559.050      57.335
  H      199.454     558.010      57.982
  H      207.598     560.136      56.224
  P      207.561     564.195      60.037
  C      206.308     564.390      62.271
  O      206.675     565.050      61.072
  O      207.959     565.310      58.956
  O      208.713     563.425      60.592
  H      207.171     565.740      58.579
  H      205.795     565.112      62.919
  H      207.186     564.006      62.789
  H      205.614     563.573      62.046
  H      209.908     558.021      54.025
  H      209.462     557.480      55.626
  H      211.136     557.812      55.250

 3  4  5  6  7  8  9  10  11  12  22  25  29  30  31  32 0
 6-311+G(2d,p)
 ****
 33  36  37 0
 6-311+G(2d,p)
 ****
 1  2  13  14  15  16  17  18  19  20  21  23  24  26 0
 3-21G
 ****
 27  28  34  35  38  39  40  41  42  43  44  45  46  47  48 0
 3-21G
 ****


