%nproc=1
%NoSave
%Mem=1900MB
#P OB98/GEN NMR

erre ene a

0 1
  C        4.366     114.699     161.494
  O        4.209     116.064     161.830
  H        3.392     114.208     161.559
  H        5.051     114.215     162.196
  H        4.746     114.603     160.474
  P        5.548     116.948     161.854
  C        5.563     117.669     164.345
  O        5.336     118.057     162.997
  C        5.710     118.898     165.238
  O        6.828     119.707     164.812
  C        4.488     119.811     165.256
  O        3.518     119.342     166.177
  C        5.113     121.132     165.679
  O        5.324     121.170     167.107
  C        6.454     121.109     164.933
  N        7.374     125.370     162.385
  C        7.429     125.112     163.741
  N        7.752     126.150     164.543
  N        7.180     123.943     164.268
  C        6.815     123.012     163.355
  C        6.720     123.144     161.988
  C        7.052     124.430     161.413
  O        7.102     124.698     160.215
  N        6.334     121.965     161.401
  C        6.164     121.135     162.413
  N        6.438     121.726     163.620
  O        5.458     117.798     160.498
  O        6.823     116.180     161.925
  H        5.793     120.363     167.382
  H        6.354     117.880     160.120
  H        7.607     126.280     162.032
  H        5.857     120.102     162.324
  H        7.247     121.605     165.503
  H        4.465     121.978     165.441
  H        7.668     127.109     164.237
  H        4.061     119.918     164.252
  H        7.719     125.976     165.540
  H        5.938     118.544     166.251
  H        6.480     117.074     164.391
  H        4.722     117.059     164.691
  P        2.100     118.864     165.607
  C        0.843     121.027     166.301
  O        0.952     119.619     166.439
  O        2.001     117.349     166.119
  O        1.969     118.934     164.123
  H        2.158     116.737     165.376
  H        0.040     121.384     166.911
  H        0.649     121.271     165.277
  H        1.758     121.488     166.611

 6  7  8  9  10  11  12  13  14  15  26  29  33  34 0
 6-311+G(2d,p)
 ****
 36  38  39  40  41 0
 6-311+G(2d,p)
 ****
 1  2  3  4  5  16  17  18  19  20  21  22  23  24  25 0
 3-21G
 ****
 27  28  30  31  32  35  37  42  43  44  45  46  47 0
 3-21G
 ****
 48  49 0
 3-21G
 ****


