%nproc=1
%NoSave
%Mem=1900MB
#P OB98/GEN NMR

erre ene a

0 1
  C      292.304     168.174     168.829
  O      293.154     169.302     168.902
  H      291.425     168.359     169.452
  H      292.816     167.283     169.202
  H      291.974     168.011     167.800
  P      294.541     169.264     168.104
  C      294.251     170.910     166.135
  O      294.180     169.558     166.568
  C      294.965     170.998     164.789
  O      296.228     170.310     164.843
  C      294.190     170.381     163.626
  O      293.211     171.284     163.141
  C      295.316     170.152     162.632
  O      295.673     171.403     162.009
  C      296.458     169.682     163.552
  N      297.850     165.252     161.504
  C      297.804     166.513     160.941
  N      298.149     166.600     159.638
  N      297.442     167.587     161.592
  C      297.056     167.338     162.864
  C      297.042     166.133     163.528
  C      297.510     164.962     162.817
  O      297.589     163.830     163.287
  N      296.499     166.256     164.781
  C      296.235     167.543     164.893
  N      296.547     168.246     163.752
  O      295.385     168.042     168.306
  O      295.296     170.598     168.561
  H      296.351     171.205     161.338
  H      295.874     170.430     169.329
  H      298.131     164.459     160.952
  H      295.824     168.020     165.774
  H      297.440     170.013     163.194
  H      295.045     169.460     161.834
  H      298.293     165.794     159.048
  H      293.758     169.412     163.901
  H      298.066     167.506     159.194
  H      295.185     172.057     164.594
  H      294.801     171.472     166.896
  H      293.246     171.335     166.045
  P      291.809     170.766     162.549
  C      290.642     171.036     164.842
  O      291.023     170.149     163.804
  O      291.923     169.856     161.377
  O      290.984     172.104     162.265
  H      291.184     172.499     161.380
  H      290.130     170.491     165.607
  H      289.994     171.790     164.447
  H      291.515     171.497     165.255

 6  7  8  9  10  11  12  13  14  15  26  29  33  34 0
 6-311+G(2d,p)
 ****
 36  38  39  40  41 0
 6-311+G(2d,p)
 ****
 1  2  3  4  5  16  17  18  19  20  21  22  23  24  25 0
 3-21G
 ****
 27  28  30  31  32  35  37  42  43  44  45  46  47 0
 3-21G
 ****
 48  49 0
 3-21G
 ****


