%nproc=1
%NoSave
%Mem=1900MB
#P OB98/GEN NMR

erre ene a

0 1
  C     -826.890    -531.947     -38.700
  O     -827.938    -531.004     -38.808
  P     -827.539    -529.471     -39.061
  C     -828.012    -529.076     -36.509
  O     -827.168    -528.858     -37.630
  C     -827.169    -529.449     -35.278
  O     -826.412    -530.645     -35.547
  C     -826.138    -528.397     -34.875
  O     -826.738    -527.311     -34.186
  C     -825.184    -529.241     -34.035
  O     -825.718    -529.416     -32.700
  C     -825.193    -530.588     -34.786
  N     -824.020    -530.772     -35.641
  C     -822.864    -531.220     -35.006
  O     -822.802    -531.458     -33.804
  N     -821.758    -531.361     -35.819
  C     -821.693    -531.057     -37.139
  O     -820.674    -531.161     -37.809
  C     -822.940    -530.544     -37.746
  C     -824.029    -530.441     -36.989
  O     -828.964    -528.845     -39.420
  O     -826.495    -529.311     -40.124
  H     -829.692    -529.344     -39.001
  H     -825.028    -529.862     -32.180
  H     -820.917    -531.709     -35.390
  H     -822.924    -530.289     -38.799
  H     -824.949    -530.062     -37.407
  H     -825.236    -531.414     -34.070
  H     -824.197    -528.782     -33.930
  H     -825.617    -528.039     -35.765
  H     -827.862    -529.665     -34.453
  H     -828.714    -529.889     -36.731
  H     -828.590    -528.161     -36.316
  P     -826.757    -525.908     -34.968
  C     -825.003    -524.899     -33.321
  O     -825.356    -525.186     -34.651
  O     -827.834    -525.079     -34.090
  O     -827.109    -526.014     -36.418
  H     -827.717    -525.216     -33.141
  H     -823.923    -524.757     -33.273
  H     -825.293    -525.714     -32.634
  H     -825.488    -523.981     -32.995
  H     -827.302    -532.920     -38.534
  H     -826.256    -531.683     -37.880
  H     -826.319    -531.951     -39.605

 3  4  5  6  7  8  9  10  11  12  13  24  28  29  30  31  32 0
 6-311+G(2d,p)
 ****
 33  34 0
 6-311+G(2d,p)
 ****
 1  2  14  15  16  17  18  19  20  21  22  23  25  26  27 0
 3-21G
 ****
 35  36  37  38  39  40  41  42  43  44  45 0
 3-21G
 ****


