%nproc=1
%NoSave
%Mem=1900MB
#P OB98/GEN NMR

erre ene a

0 1
  C     -165.859     423.245     283.279
  O     -165.731     422.294     284.322
  P     -164.911     422.704     285.637
  C     -162.609     422.182     284.471
  O     -163.498     421.943     285.555
  C     -161.514     421.114     284.445
  O     -160.643     421.357     283.299
  C     -160.613     421.094     285.702
  O     -160.259     419.721     285.944
  C     -159.395     421.888     285.252
  O     -158.242     421.607     286.031
  C     -159.289     421.454     283.784
  N     -158.514     422.380     282.961
  C     -157.427     421.871     282.255
  O     -157.064     420.690     282.302
  N     -156.732     422.781     281.498
  C     -156.966     424.126     281.427
  O     -156.300     424.896     280.739
  C     -158.099     424.612     282.227
  C     -158.818     423.732     282.932
  O     -165.715     421.903     286.762
  O     -164.819     424.180     285.856
  H     -166.047     421.036     286.455
  H     -157.465     421.988     285.574
  H     -155.960     422.429     280.950
  H     -158.315     425.679     282.217
  H     -159.656     424.069     283.539
  H     -158.850     420.445     283.723
  H     -159.610     422.963     285.342
  H     -161.109     421.512     286.577
  H     -161.980     420.131     284.295
  H     -162.147     423.167     284.590
  H     -163.179     422.180     283.535
  P     -160.135     419.227     287.472
  C     -157.527     419.131     287.718
  O     -158.755     418.435     287.611
  O     -161.234     418.051     287.473
  O     -160.419     420.283     288.494
  H     -161.137     417.442     286.722
  H     -156.768     418.461     288.126
  H     -157.611     420.008     288.360
  H     -157.206     419.447     286.717
  H     -166.429     422.822     282.479
  H     -164.887     423.515     282.921
  H     -166.357     424.116     283.650

 3  4  5  6  7  8  9  10  11  12  13  24  28  29  30  31  32 0
 6-311+G(2d,p)
 ****
 33  34 0
 6-311+G(2d,p)
 ****
 1  2  14  15  16  17  18  19  20  21  22  23  25  26  27 0
 3-21G
 ****
 35  36  37  38  39  40  41  42  43  44  45 0
 3-21G
 ****


