%nproc=1
%NoSave
%Mem=1900MB
#P OB98/GEN NMR

erre ene a

0 1
  C      216.628      82.691     398.753
  O      217.372      83.544     399.602
  H      216.598      83.134     397.754
  H      215.605      82.580     399.124
  H      217.113      81.711     398.691
  P      217.510      83.088     401.135
  C      219.836      84.182     401.311
  O      218.494      84.180     401.787
  C      220.382      85.614     401.256
  O      219.856      86.261     400.069
  C      219.980      86.459     402.466
  O      221.072      87.308     402.827
  C      218.830      87.305     401.947
  O      218.677      88.525     402.671
  C      219.213      87.485     400.478
  N      216.362      91.171     398.400
  C      217.534      91.204     399.065
  N      218.235      90.165     399.573
  C      217.632      89.001     399.292
  C      216.430      88.807     398.626
  C      215.780      89.968     398.173
  N      214.570      89.944     397.517
  N      216.115      87.460     398.573
  C      217.117      86.850     399.189
  N      218.046      87.740     399.649
  O      217.893      81.666     401.358
  O      216.084      83.517     401.726
  H      217.981      89.053     402.230
  H      215.818      84.402     401.419
  H      217.965      92.190     399.215
  H      217.203      85.776     399.332
  H      219.914      88.315     400.326
  H      217.889      86.745     402.035
  H      219.684      85.856     403.322
  H      221.471      85.569     401.140
  H      219.880      83.737     400.309
  H      214.176      90.823     397.209
  H      214.129      89.059     397.322
  H      220.440      83.573     401.991
  P      221.158      87.844     404.337
  C      223.725      87.606     404.562
  O      222.612      88.495     404.562
  O      220.711      86.888     405.394
  O      220.210      89.142     404.299
  H      219.723      89.194     405.144
  H      224.625      88.162     404.720
  H      223.778      87.101     403.620
  H      223.607      86.887     405.346

 6  7  8  9  10  11  12  13  14  15  25  28  32  33  34  35 0
 6-311+G(2d,p)
 ****
 36  39  40 0
 6-311+G(2d,p)
 ****
 1  2  3  4  5  16  17  18  19  20  21  22  23  24 0
 3-21G
 ****
 26  27  29  30  31  37  38  41  42  43  44  45  46  47 0
 3-21G
 ****
 48 0
 3-21G
 ****


