%nproc=1
%NoSave
%Mem=1900MB
#P OB98/GEN NMR

erre ene a

0 1
  C     -304.480    -588.545    -125.611
  O     -304.088    -588.064    -126.897
  P     -302.817    -587.084    -126.984
  C     -301.746    -588.505    -128.861
  O     -301.563    -587.906    -127.580
  C     -300.405    -588.676    -129.586
  O     -299.944    -587.367    -130.020
  C     -299.263    -589.236    -128.718
  O     -299.101    -590.656    -128.672
  C     -298.036    -588.684    -129.437
  O     -297.698    -589.533    -130.544
  C     -298.494    -587.325    -129.945
  N     -295.011    -583.622    -129.315
  C     -295.163    -584.567    -130.288
  N     -296.099    -585.520    -130.363
  C     -296.988    -585.426    -129.340
  C     -296.936    -584.515    -128.296
  C     -295.885    -583.589    -128.290
  N     -295.723    -582.637    -127.310
  N     -297.999    -584.736    -127.420
  C     -298.648    -585.779    -127.924
  N     -298.068    -586.218    -129.097
  O     -302.533    -586.274    -125.765
  O     -303.213    -586.124    -128.221
  H     -297.065    -589.022    -131.092
  H     -302.920    -585.217    -128.033
  H     -294.430    -584.568    -131.087
  H     -299.517    -586.234    -127.480
  H     -298.136    -587.112    -130.955
  H     -297.154    -588.650    -128.791
  H     -299.312    -588.836    -127.689
  H     -300.539    -589.291    -130.474
  H     -302.418    -587.904    -129.475
  H     -294.916    -582.033    -127.375
  H     -296.349    -582.631    -126.520
  H     -302.246    -589.468    -128.692
  P     -299.793    -591.534    -127.515
  C     -301.158    -593.063    -129.157
  O     -301.173    -592.069    -128.145
  O     -299.936    -590.841    -126.197
  O     -298.872    -592.835    -127.464
  H     -298.940    -593.405    -128.258
  H     -302.156    -593.443    -129.300
  H     -300.483    -593.892    -128.894
  H     -300.816    -592.610    -130.108
  H     -305.334    -589.181    -125.713
  H     -304.726    -587.717    -124.980
  H     -303.674    -589.098    -125.176

 3  4  5  6  7  8  9  10  11  12  22  25  29  30  31  32 0
 6-311+G(2d,p)
 ****
 33  36  37 0
 6-311+G(2d,p)
 ****
 1  2  13  14  15  16  17  18  19  20  21  23  24  26 0
 3-21G
 ****
 27  28  34  35  38  39  40  41  42  43  44  45  46  47  48 0
 3-21G
 ****


