%nproc=1
%NoSave
%Mem=1900MB
#P OB98/GEN NMR

erre ene a

0 1
  C      225.239      23.307    -103.468
  O      223.926      23.193    -102.956
  H      225.743      22.343    -103.357
  H      225.807      24.065    -102.923
  H      225.206      23.562    -104.531
  P      223.069      24.538    -102.769
  C      222.945      23.928    -100.263
  O      223.236      24.942    -101.222
  C      223.910      24.004     -99.077
  O      225.271      24.073     -99.548
  C      223.724      25.243     -98.214
  O      222.523      25.256     -97.473
  C      225.059      25.339     -97.488
  O      225.115      24.555     -96.300
  C      226.037      24.765     -98.541
  N      226.887      25.799     -99.118
  C      228.068      26.065     -98.433
  O      228.392      25.496     -97.391
  N      228.857      27.047     -98.964
  C      228.561      27.805    -100.059
  O      229.293      28.700    -100.462
  C      227.287      27.496    -100.727
  C      226.519      26.521    -100.234
  O      221.643      24.470    -103.227
  O      223.935      25.648    -103.528
  H      225.926      24.815     -95.822
  H      223.396      26.453    -103.714
  H      229.722      27.247     -98.487
  H      227.018      28.079    -101.598
  H      225.571      26.275    -100.708
  H      226.691      24.014     -98.080
  H      225.284      26.369     -97.201
  H      223.675      26.114     -98.878
  H      223.801      23.089     -98.484
  H      223.061      22.958    -100.759
  H      221.911      24.030     -99.921
  P      221.292      26.214     -97.814
  C      221.560      27.032     -95.362
  O      221.239      27.378     -96.706
  O      220.015      25.552     -98.218
  O      221.855      27.004     -99.105
  H      221.096      27.178     -99.695
  H      221.483      27.901     -94.742
  H      222.559      26.652     -95.321
  H      220.879      26.284     -95.014

 6  7  8  9  10  11  12  13  14  15  16  26  31  32  33  34  35 0
 6-311+G(2d,p)
 ****
 36  37 0
 6-311+G(2d,p)
 ****
 1  2  3  4  5  17  18  19  20  21  22  23  24  25 0
 3-21G
 ****
 27  28  29  30  38  39  40  41  42  43  44  45 0
 3-21G
 ****


