%nproc=1
%NoSave
%Mem=1900MB
#P OB98/GEN NMR

erre ene a

0 1
  C      274.831     -66.988     214.681
  O      274.341     -66.340     215.836
  H      274.377     -66.528     213.801
  H      274.557     -68.047     214.700
  H      275.918     -66.887     214.607
  P      274.986     -66.701     217.256
  C      272.762     -67.208     218.467
  O      273.885     -66.346     218.367
  C      271.513     -66.427     218.896
  O      271.151     -65.504     217.822
  C      270.278     -67.306     219.170
  O      269.497     -66.635     220.167
  C      269.595     -67.273     217.815
  O      268.286     -67.784     217.854
  C      269.773     -65.784     217.482
  N      269.499     -65.415     216.101
  C      268.187     -65.098     215.764
  O      267.242     -65.105     216.553
  N      267.972     -64.763     214.453
  C      268.923     -64.704     213.474
  O      268.674     -64.368     212.322
  C      270.288     -65.055     213.887
  C      270.513     -65.383     215.162
  O      276.346     -66.142     217.514
  O      274.997     -68.304     217.270
  H      275.897     -68.626     217.073
  H      267.950     -67.871     216.937
  H      267.028     -64.527     214.190
  H      271.063     -65.027     213.133
  H      271.513     -65.637     215.499
  H      269.152     -65.177     218.148
  H      270.141     -67.900     217.105
  H      270.535     -68.309     219.523
  H      271.763     -65.812     219.770
  H      272.987     -67.979     219.212
  H      272.589     -67.687     217.499
  P      269.025     -67.328     221.540
  C      266.528     -66.756     221.912
  O      267.879     -66.412     222.194
  O      270.147     -67.646     222.473
  O      268.249     -68.657     221.096
  H      268.300     -69.317     221.812
  H      265.874     -66.069     222.407
  H      266.332     -67.748     222.261
  H      266.361     -66.710     220.856

 6  7  8  9  10  11  12  13  14  15  16  27  31  32  33  34  35 0
 6-311+G(2d,p)
 ****
 36  37 0
 6-311+G(2d,p)
 ****
 1  2  3  4  5  17  18  19  20  21  22  23  24  25 0
 3-21G
 ****
 26  28  29  30  38  39  40  41  42  43  44  45 0
 3-21G
 ****


