%nproc=1
%NoSave
%Mem=1900MB
#P OB98/GEN NMR

erre ene a

0 1
  C      364.658       3.831     114.465
  O      364.520       2.615     115.182
  P      364.700       1.245     114.372
  C      363.491       0.389     112.198
  O      363.434       1.148     113.393
  C      362.166      -0.361     111.982
  O      361.059       0.485     112.360
  C      361.896      -0.768     110.541
  O      362.656      -1.906     110.166
  C      360.393      -0.990     110.572
  O      360.089      -2.285     111.130
  C      359.931       0.119     111.539
  N      359.378       1.292     110.850
  C      358.007       1.276     110.625
  O      357.272       0.354     110.970
  N      357.503       2.369     109.962
  C      358.231       3.408     109.458
  O      357.730       4.340     108.833
  C      359.678       3.351     109.703
  C      360.177       2.309     110.379
  O      364.403       0.177     115.528
  O      366.035       1.115     113.721
  H      363.814       0.543     116.215
  H      360.413      -2.271     112.048
  H      356.510       2.391     109.805
  H      360.287       4.157     109.311
  H      361.245       2.245     110.555
  H      359.166      -0.266     112.222
  H      359.934      -0.946     109.581
  H      362.130       0.070     109.870
  H      362.165      -1.238     112.642
  H      364.308      -0.326     112.270
  H      363.688       1.062     111.352
  P      362.970      -2.074     108.591
  C      361.496      -2.543     106.487
  O      361.566      -2.385     107.888
  O      363.743      -3.472     108.572
  O      363.742      -0.931     108.008
  H      363.333      -4.132     109.155
  H      360.579      -3.079     106.236
  H      362.348      -3.095     106.098
  H      361.456      -1.554     106.013
  H      364.513       4.656     115.131
  H      363.927       3.870     113.684
  H      365.638       3.885     114.039

 3  4  5  6  7  8  9  10  11  12  13  24  28  29  30  31  32 0
 6-311+G(2d,p)
 ****
 33  34 0
 6-311+G(2d,p)
 ****
 1  2  14  15  16  17  18  19  20  21  22  23  25  26  27 0
 3-21G
 ****
 35  36  37  38  39  40  41  42  43  44  45 0
 3-21G
 ****


