%nproc=1
%NoSave
%Mem=1900MB
#P OB98/GEN NMR

erre ene a

0 1
  C     -833.049     569.192     149.757
  O     -833.885     568.700     148.728
  H     -832.217     568.500     149.901
  H     -833.609     569.265     150.697
  H     -832.650     570.179     149.496
  P     -835.057     569.675     148.223
  C     -835.161     568.494     145.912
  O     -835.864     568.870     147.096
  C     -836.102     567.741     144.956
  O     -837.198     568.595     144.562
  C     -835.434     567.279     143.671
  O     -834.727     566.053     143.844
  C     -836.659     567.088     142.776
  O     -837.316     565.853     143.127
  C     -837.534     568.290     143.185
  N     -838.054     570.309     138.562
  C     -838.379     569.042     139.024
  N     -838.911     568.187     138.123
  N     -838.194     568.648     140.253
  C     -837.648     569.602     141.050
  C     -837.279     570.891     140.703
  C     -837.497     571.318     139.334
  O     -837.262     572.424     138.890
  N     -836.768     571.561     141.771
  C     -836.793     570.683     142.765
  N     -837.310     569.477     142.360
  O     -834.271     570.794     147.383
  O     -835.892     570.294     149.295
  H     -836.610     565.188     143.282
  H     -834.713     571.653     147.512
  H     -838.205     570.553     137.599
  H     -836.458     570.872     143.770
  H     -838.600     568.060     143.137
  H     -836.400     567.030     141.722
  H     -839.026     568.410     137.145
  H     -834.797     568.067     143.237
  H     -839.189     567.261     138.441
  H     -836.518     566.897     145.510
  H     -834.325     567.837     146.174
  H     -834.776     569.401     145.422
  P     -833.146     566.055     143.555
  C     -832.647     564.544     145.602
  O     -832.591     564.693     144.196
  O     -832.601     567.181     144.546
  O     -832.768     566.323     142.138
  H     -831.743     567.537     144.225
  H     -832.244     563.592     145.876
  H     -833.664     564.607     145.927
  H     -832.075     565.320     146.066

 6  7  8  9  10  11  12  13  14  15  26  29  33  34 0
 6-311+G(2d,p)
 ****
 36  38  39  40  41 0
 6-311+G(2d,p)
 ****
 1  2  3  4  5  16  17  18  19  20  21  22  23  24  25 0
 3-21G
 ****
 27  28  30  31  32  35  37  42  43  44  45  46  47 0
 3-21G
 ****
 48  49 0
 3-21G
 ****


