%nproc=1
%NoSave
%Mem=1900MB
#P OB98/GEN NMR

erre ene a

0 1
  C       -9.529     -90.661      -2.113
  O      -10.661     -91.009      -1.345
  H       -9.868     -90.254      -3.069
  H       -8.918     -91.545      -2.308
  H       -8.931     -89.902      -1.602
  P      -10.450     -91.510       0.163
  C       -9.484     -93.604       1.310
  O       -9.837     -92.989       0.078
  C       -9.113     -95.066       1.074
  O       -7.870     -95.155       0.342
  C       -8.898     -95.863       2.355
  O      -10.133     -96.181       2.963
  C       -8.115     -97.050       1.815
  O       -8.988     -98.003       1.190
  C       -7.210     -96.370       0.761
  N       -5.863     -96.092       1.263
  C       -4.871     -96.992       0.887
  O       -5.083     -97.974       0.180
  N       -3.622     -96.748       1.395
  C       -3.304     -95.770       2.293
  O       -2.232     -95.723       2.887
  C       -4.373     -94.807       2.593
  C       -5.589     -95.018       2.086
  O      -11.628     -91.364       1.065
  O       -9.207     -90.638       0.676
  H       -9.535     -89.905       1.230
  H       -9.484     -97.515       0.504
  H       -2.905     -97.421       1.168
  H       -4.143     -93.979       3.251
  H       -6.400     -94.337       2.318
  H       -7.116     -97.004      -0.130
  H       -7.571     -97.580       2.599
  H       -8.258     -95.301       3.044
  H       -9.899     -95.522       0.459
  H      -10.345     -93.553       1.985
  H       -8.648     -93.058       1.758
  P      -10.273     -96.272       4.554
  C       -9.294     -97.698       6.443
  O       -9.144     -97.272       5.097
  O      -11.650     -96.565       5.052
  O       -9.770     -94.844       5.076
  H      -10.454     -94.458       5.657
  H       -8.492     -98.358       6.700
  H      -10.227     -98.211       6.553
  H       -9.277     -96.846       7.091

 6  7  8  9  10  11  12  13  14  15  16  27  31  32  33  34  35 0
 6-311+G(2d,p)
 ****
 36  37 0
 6-311+G(2d,p)
 ****
 1  2  3  4  5  17  18  19  20  21  22  23  24  25 0
 3-21G
 ****
 26  28  29  30  38  39  40  41  42  43  44  45 0
 3-21G
 ****


