%nproc=1
%NoSave
%Mem=1900MB
#P OB98/GEN NMR

erre ene a

0 1
  C     -377.667     -38.913    -976.321
  O     -377.957     -39.508    -975.067
  H     -378.165     -37.941    -976.373
  H     -378.048     -39.532    -977.141
  H     -376.590     -38.768    -976.431
  P     -377.473     -41.017    -974.811
  C     -376.956     -40.824    -972.279
  O     -377.835     -41.329    -973.285
  C     -377.190     -41.554    -970.962
  O     -378.470     -41.185    -970.406
  C     -377.226     -43.072    -971.111
  O     -375.917     -43.589    -971.271
  C     -377.933     -43.471    -969.830
  O     -377.041     -43.471    -968.711
  C     -378.991     -42.344    -969.701
  N     -380.298     -42.738    -970.211
  C     -381.161     -43.356    -969.304
  O     -380.793     -43.542    -968.130
  N     -382.390     -43.760    -969.740
  C     -382.753     -43.555    -970.966
  N     -383.984     -43.985    -971.331
  C     -381.885     -42.896    -971.965
  C     -380.681     -42.509    -971.520
  O     -376.061     -41.344    -975.196
  O     -378.540     -41.893    -975.627
  H     -377.596     -43.388    -967.920
  H     -378.236     -42.038    -976.546
  H     -382.217     -42.734    -972.970
  H     -379.973     -42.012    -972.189
  H     -379.101     -42.045    -968.647
  H     -378.367     -44.464    -969.912
  H     -377.855     -43.355    -971.954
  H     -376.407     -41.243    -970.249
  H     -384.544     -44.445    -970.622
  H     -377.170     -39.760    -972.176
  H     -384.406     -43.800    -972.235
  H     -375.909     -40.933    -972.593
  P     -375.599     -45.118    -970.888
  C     -373.788     -45.156    -972.738
  O     -374.066     -45.355    -971.348
  O     -376.580     -46.121    -971.381
  O     -375.471     -45.074    -969.286
  H     -376.371     -44.993    -968.872
  H     -372.750     -45.340    -972.924
  H     -374.026     -44.149    -973.009
  H     -374.380     -45.831    -973.320

 6  7  8  9  10  11  12  13  14  15  16  26  30  31  32  33  35 0
 6-311+G(2d,p)
 ****
 37  38 0
 6-311+G(2d,p)
 ****
 1  2  3  4  5  17  18  19  20  21  22  23  24  25 0
 3-21G
 ****
 27  28  29  34  36  39  40  41  42  43  44  45  46 0
 3-21G
 ****


