%nproc=1
%NoSave
%Mem=1900MB
#P OB98/GEN NMR

erre ene a

0 1
  C      233.982     266.689    -432.513
  O      233.492     266.961    -433.806
  H      234.264     265.632    -432.463
  H      233.205     266.871    -431.763
  H      234.863     267.296    -432.296
  P      232.959     268.434    -434.152
  C      232.837     267.297    -436.451
  O      232.301     268.316    -435.617
  C      231.761     266.718    -437.372
  O      230.654     266.221    -436.572
  C      231.191     267.734    -438.371
  O      231.143     267.157    -439.677
  C      229.774     267.975    -437.870
  O      228.889     268.429    -438.888
  C      229.451     266.604    -437.260
  N      228.293     266.657    -436.376
  C      227.064     266.932    -436.981
  O      227.000     267.111    -438.198
  N      225.950     267.057    -436.193
  C      226.062     266.961    -434.903
  N      224.925     267.124    -434.176
  C      227.344     266.696    -434.219
  C      228.408     266.551    -435.008
  O      233.978     269.517    -434.005
  O      231.684     268.643    -433.206
  H      228.870     267.757    -439.606
  H      231.520     269.609    -433.097
  H      227.386     266.631    -433.145
  H      229.396     266.360    -434.598
  H      229.255     265.865    -438.047
  H      229.795     268.738    -437.077
  H      231.760     268.663    -438.415
  H      232.183     265.848    -437.890
  H      224.069     267.309    -434.684
  H      233.261     266.511    -435.816
  H      224.891     267.097    -433.170
  H      233.632     267.737    -437.062
  P      232.288     267.623    -440.700
  C      233.166     265.195    -440.980
  O      232.674     266.364    -441.621
  O      233.568     267.820    -439.757
  O      231.954     268.875    -441.440
  H      233.782     268.769    -439.681
  H      233.378     264.447    -441.716
  H      232.429     264.825    -440.298
  H      234.061     265.432    -440.444

 6  7  8  9  10  11  12  13  14  15  16  26  30  31  32  33  35 0
 6-311+G(2d,p)
 ****
 37  38 0
 6-311+G(2d,p)
 ****
 1  2  3  4  5  17  18  19  20  21  22  23  24  25 0
 3-21G
 ****
 27  28  29  34  36  39  40  41  42  43  44  45  46 0
 3-21G
 ****


