%nproc=1
%NoSave
%Mem=1900MB
#P OB98/GEN NMR

erre ene a

0 1
  C     -262.355     264.652    -173.730
  O     -263.184     263.682    -173.111
  P     -264.654     264.116    -172.645
  C     -265.896     262.651    -174.405
  O     -265.631     263.956    -173.911
  C     -266.943     261.949    -173.534
  O     -268.213     262.662    -173.643
  C     -267.204     260.490    -173.928
  O     -267.507     259.764    -172.722
  C     -268.458     260.597    -174.780
  O     -269.161     259.371    -174.903
  C     -269.211     261.689    -174.015
  N     -270.289     262.294    -174.794
  C     -271.590     262.137    -174.325
  O     -271.878     261.523    -173.293
  N     -272.584     262.662    -175.107
  C     -272.413     263.232    -176.335
  O     -273.356     263.576    -177.046
  C     -271.023     263.369    -176.790
  C     -270.037     262.904    -176.012
  O     -264.526     265.701    -172.456
  O     -265.137     263.438    -171.402
  H     -269.504     259.137    -174.023
  H     -264.420     265.923    -171.514
  H     -273.528     262.564    -174.775
  H     -270.852     263.840    -177.752
  H     -268.998     262.977    -176.325
  H     -269.626     261.283    -173.082
  H     -268.183     260.931    -175.790
  H     -266.369     260.018    -174.458
  H     -266.622     262.010    -172.490
  H     -264.973     262.070    -174.396
  H     -266.239     262.715    -175.444
  P     -267.188     258.189    -172.698
  C     -264.579     258.352    -172.705
  O     -265.758     257.990    -173.390
  O     -268.230     257.655    -173.792
  O     -267.367     257.562    -171.346
  H     -268.265     258.220    -174.581
  H     -264.661     258.172    -171.628
  H     -264.367     259.409    -172.879
  H     -263.743     257.758    -173.096
  H     -261.414     264.209    -173.980
  H     -262.197     265.469    -173.057
  H     -262.828     265.010    -174.620

 3  4  5  6  7  8  9  10  11  12  13  23  28  29  30  31  32 0
 6-311+G(2d,p)
 ****
 33  34 0
 6-311+G(2d,p)
 ****
 1  2  14  15  16  17  18  19  20  21  22  24  25  26 0
 3-21G
 ****
 27  35  36  37  38  39  40  41  42  43  44  45 0
 3-21G
 ****


