%nproc=1
%NoSave
%Mem=1900MB
#P OB98/GEN NMR

erre ene a

0 1
  C       54.345    -154.275    -146.143
  O       53.382    -155.044    -146.846
  P       52.430    -156.011    -145.986
  C       52.873    -158.110    -144.511
  O       53.328    -157.274    -145.569
  C       53.189    -159.568    -144.819
  O       52.494    -160.006    -146.006
  C       54.663    -159.841    -145.096
  O       55.423    -159.965    -143.904
  C       54.581    -161.181    -145.814
  O       54.425    -162.243    -144.854
  C       53.304    -161.020    -146.648
  N       55.145    -162.572    -151.100
  C       54.840    -163.301    -149.965
  N       55.123    -164.621    -150.007
  N       54.304    -162.784    -148.892
  C       54.086    -161.449    -148.991
  C       54.342    -160.621    -150.061
  C       54.945    -161.204    -151.239
  O       55.285    -160.602    -152.252
  N       53.974    -159.330    -149.789
  C       53.495    -159.373    -148.564
  N       53.581    -160.628    -148.020
  O       51.434    -156.616    -147.083
  O       51.698    -155.340    -144.875
  H       55.305    -162.391    -144.455
  H       50.648    -157.002    -146.647
  H       55.563    -163.017    -151.901
  H       53.093    -158.522    -148.025
  H       52.714    -161.941    -146.671
  H       55.480    -161.405    -146.395
  H       55.594    -165.065    -150.782
  H       55.087    -159.090    -145.775
  H       54.971    -165.167    -149.169
  H       52.836    -160.177    -143.977
  H       51.794    -157.985    -144.394
  H       53.357    -157.804    -143.577
  P       56.949    -159.465    -143.966
  C       58.799    -160.064    -145.690
  O       57.698    -160.511    -144.923
  O       57.500    -159.814    -142.506
  O       57.115    -158.023    -144.307
  H       58.238    -159.222    -142.271
  H       59.342    -160.936    -146.064
  H       59.481    -159.460    -145.088
  H       58.444    -159.480    -146.544
  H       54.904    -153.682    -146.837
  H       55.009    -154.929    -145.617
  H       53.849    -153.634    -145.445

 3  4  5  6  7  8  9  10  11  12  23  26  30  31 0
 6-311+G(2d,p)
 ****
 33  35  36  37  38 0
 6-311+G(2d,p)
 ****
 1  2  13  14  15  16  17  18  19  20  21  22  24  25 0
 3-21G
 ****
 27  28  29  32  34  39  40  41  42  43  44  45  46  47  48  49 0
 3-21G
 ****


