%nproc=1
%NoSave
%Mem=1900MB
#P OB98/GEN NMR

erre ene a

0 1
  C      -11.715    -452.106     166.376
  O      -12.272    -450.844     166.044
  P      -13.782    -450.535     166.493
  C      -12.968    -450.029     168.920
  O      -13.845    -450.766     168.083
  C      -13.752    -449.283     170.005
  O      -14.582    -450.245     170.714
  C      -12.891    -448.574     171.063
  O      -13.610    -447.407     171.471
  C      -12.843    -449.576     172.203
  O      -12.519    -448.970     173.453
  C      -14.250    -450.159     172.121
  N      -15.025    -452.705     176.431
  C      -14.914    -451.344     176.218
  N      -15.090    -450.544     177.299
  N      -14.652    -450.805     175.048
  C      -14.513    -451.734     174.063
  C      -14.556    -453.101     174.156
  C      -14.885    -453.677     175.443
  O      -15.073    -454.869     175.664
  N      -14.274    -453.701     172.953
  C      -14.138    -452.698     172.109
  N      -14.318    -451.478     172.727
  O      -14.592    -451.782     165.894
  O      -14.342    -449.219     166.047
  H      -11.614    -448.594     173.373
  H      -14.965    -451.574     165.025
  H      -15.248    -453.055     177.352
  H      -13.919    -452.775     171.064
  H      -15.003    -449.526     172.613
  H      -12.083    -450.336     171.988
  H      -15.328    -450.890     178.215
  H      -11.900    -448.297     170.693
  H      -15.055    -449.538     177.154
  H      -14.427    -448.570     169.513
  H      -12.434    -449.291     168.312
  H      -12.233    -450.705     169.373
  P      -12.775    -446.206     172.136
  C      -12.756    -444.857     169.917
  O      -11.993    -445.442     170.958
  O      -11.607    -446.969     172.920
  O      -13.559    -445.338     173.069
  H      -11.363    -446.466     173.725
  H      -12.158    -444.069     169.437
  H      -13.683    -444.422     170.286
  H      -12.994    -445.621     169.167
  H      -10.710    -452.160     166.011
  H      -12.299    -452.883     165.928
  H      -11.716    -452.228     167.439

 3  4  5  6  7  8  9  10  11  12  23  26  30  31 0
 6-311+G(2d,p)
 ****
 33  35  36  37  38 0
 6-311+G(2d,p)
 ****
 1  2  13  14  15  16  17  18  19  20  21  22  24  25 0
 3-21G
 ****
 27  28  29  32  34  39  40  41  42  43  44  45  46  47  48  49 0
 3-21G
 ****


