%nproc=1
%NoSave
%Mem=1900MB
#P OB98/GEN NMR

erre ene a

0 1
  C        0.554     175.683    -116.872
  O        1.526     175.491    -115.840
  P        1.785     176.725    -114.846
  C        0.084     175.855    -113.096
  O        1.422     176.256    -113.351
  C       -0.155     175.631    -111.598
  O        0.791     174.663    -111.061
  C       -0.017     176.903    -110.756
  O       -0.947     176.810    -109.668
  C        1.391     176.794    -110.202
  O        1.570     177.623    -109.056
  C        1.469     175.289    -109.954
  N        5.755     175.529    -107.188
  C        4.546     176.107    -107.033
  N        3.458     176.011    -107.830
  C        3.702     175.180    -108.857
  C        4.887     174.525    -109.152
  C        5.954     174.726    -108.260
  N        7.197     174.158    -108.433
  N        4.763     173.800    -110.322
  C        3.527     174.018    -110.724
  N        2.839     174.819    -109.858
  O        0.609     177.745    -115.218
  O        3.128     177.357    -115.007
  H        0.861     177.411    -108.411
  H        0.973     178.510    -115.700
  H        4.435     176.739    -106.153
  H        3.086     173.630    -111.630
  H        0.962     174.991    -109.026
  H        2.116     177.103    -110.965
  H       -0.180     177.836    -111.305
  H       -1.162     175.212    -111.469
  H       -0.141     174.931    -113.637
  H        7.916     174.377    -107.763
  H        7.371     173.596    -109.254
  H       -0.597     176.613    -113.500
  P       -1.258     178.168    -108.875
  C       -3.604     178.755    -109.819
  O       -2.851     178.249    -108.733
  O       -0.913     179.315    -109.939
  O       -0.483     178.327    -107.608
  H       -0.677     180.141    -109.477
  H       -4.512     178.155    -109.928
  H       -3.045     178.723    -110.759
  H       -3.885     179.790    -109.605
  H        0.477     174.792    -117.460
  H        0.854     176.498    -117.497
  H       -0.396     175.902    -116.431

 3  4  5  6  7  8  9  10  11  12  22  25  29  30  31  32 0
 6-311+G(2d,p)
 ****
 33  36  37 0
 6-311+G(2d,p)
 ****
 1  2  13  14  15  16  17  18  19  20  21  23  24  26 0
 3-21G
 ****
 27  28  34  35  38  39  40  41  42  43  44  45  46  47  48 0
 3-21G
 ****


