%nproc=1
%NoSave
%Mem=1900MB
#P OB98/GEN NMR

erre ene a

0 1
  C      -58.328     279.435     195.774
  O      -57.255     280.207     195.228
  P      -56.392     281.142     196.201
  C      -54.590     279.714     197.371
  O      -54.893     280.570     196.280
  C      -53.097     279.344     197.383
  O      -52.710     278.821     196.084
  C      -52.187     280.538     197.706
  O      -51.252     280.263     198.750
  C      -51.588     280.901     196.356
  O      -50.357     281.599     196.465
  C      -51.557     279.553     195.627
  N      -51.545     279.716     194.170
  C      -50.306     279.659     193.545
  O      -49.245     279.555     194.161
  N      -50.313     279.788     192.182
  C      -51.408     280.045     191.410
  O      -51.356     280.197     190.198
  C      -52.684     280.160     192.133
  C      -52.693     279.993     193.459
  O      -57.016     281.463     197.518
  O      -56.199     282.479     195.329
  H      -49.925     281.606     195.582
  H      -56.265     283.246     195.934
  H      -49.423     279.729     191.712
  H      -53.569     280.383     191.556
  H      -53.615     280.086     194.016
  H      -50.661     278.983     195.897
  H      -52.291     281.565     195.836
  H      -52.763     281.388     198.087
  H      -52.967     278.551     198.129
  H      -55.181     278.801     197.292
  H      -54.898     280.197     198.306
  P      -51.346     280.862     200.232
  C      -53.143     279.175     201.033
  O      -51.842     279.697     201.213
  O      -52.080     282.152     200.365
  O      -49.805     281.055     200.639
  H      -49.708     281.892     201.130
  H      -53.456     278.689     201.963
  H      -53.129     278.426     200.234
  H      -53.860     279.962     200.786
  H      -58.796     278.872     194.993
  H      -59.047     280.089     196.221
  H      -57.945     278.766     196.516

 3  4  5  6  7  8  9  10  11  12  13  23  28  29  30  31  32 0
 6-311+G(2d,p)
 ****
 33  34 0
 6-311+G(2d,p)
 ****
 1  2  14  15  16  17  18  19  20  21  22  24  25  26  27 0
 3-21G
 ****
 35  36  37  38  39  40  41  42  43  44  45 0
 3-21G
 ****


