%nproc=1
%NoSave
%Mem=1900MB
#P OB98/GEN NMR

erre ene a

0 1
  C     -136.278     458.111     427.649
  O     -135.933     459.439     427.233
  P     -135.221     459.573     425.788
  C     -136.158     461.780     424.761
  O     -135.102     461.132     425.461
  C     -136.396     463.180     425.308
  O     -136.518     463.159     426.748
  C     -135.259     464.168     425.028
  O     -135.335     464.677     423.703
  C     -135.556     465.253     426.044
  O     -136.578     466.144     425.518
  C     -136.123     464.455     427.255
  N     -135.145     464.958     432.189
  C     -136.269     465.291     431.488
  N     -137.320     465.786     432.216
  N     -136.404     465.122     430.197
  C     -135.296     464.588     429.609
  C     -134.106     464.221     430.225
  C     -133.984     464.425     431.638
  O     -132.994     464.190     432.324
  N     -133.230     463.689     429.308
  C     -133.872     463.714     428.160
  N     -135.142     464.258     428.287
  O     -136.372     459.080     424.772
  O     -133.969     458.764     425.651
  H     -137.315     465.584     425.186
  H     -135.979     458.716     423.961
  H     -135.114     465.096     433.198
  H     -133.496     463.348     427.224
  H     -137.002     464.942     427.668
  H     -134.694     465.873     426.277
  H     -137.323     465.866     433.203
  H     -134.295     463.713     425.250
  H     -138.171     465.998     431.693
  H     -137.337     463.558     424.878
  H     -137.068     461.188     424.843
  H     -135.891     461.803     423.695
  P     -134.120     464.297     422.702
  C     -135.327     463.180     420.669
  O     -134.770     464.352     421.244
  O     -133.926     462.736     422.977
  O     -132.879     465.069     422.912
  H     -133.015     462.470     422.798
  H     -135.927     462.635     421.427
  H     -134.519     462.537     420.311
  H     -135.977     463.460     419.840
  H     -136.740     458.148     428.614
  H     -135.393     457.512     427.700
  H     -136.959     457.682     426.944

 3  4  5  6  7  8  9  10  11  12  23  26  30  31  33  0
 6-311+G(2d,p)
 ****
 35  36  37  38 0
 6-311+G(2d,p)
 ****
 1  2  13  14  15  16  17  18  19  20  21  22  24  25  27  28  29 0
 3-21G
 ****
 32  34  39  40  41  42  43  44  45  46  47  48  49 0
 3-21G
 ****


