%nproc=1
%NoSave
%Mem=1900MB
#P OB98/GEN NMR

erre ene a

0 1
  C       -7.866     -29.626      83.711
  O       -8.541     -30.275      82.647
  P      -10.007     -30.876      82.851
  C      -12.197     -30.891      81.401
  O      -10.793     -30.769      81.466
  C      -12.627     -30.902      79.929
  O      -12.256     -29.661      79.293
  C      -11.966     -32.043      79.159
  O      -12.816     -33.177      79.117
  C      -11.717     -31.422      77.798
  O      -12.914     -31.463      76.999
  C      -11.375     -29.962      78.178
  N       -9.993     -29.657      78.593
  C       -8.936     -29.957      77.739
  O       -9.077     -30.444      76.622
  N       -7.681     -29.695      78.232
  C       -7.401     -29.135      79.445
  O       -6.293     -29.132      79.967
  C       -8.553     -28.597      80.173
  C       -9.776     -28.897      79.734
  O      -10.723     -29.778      83.767
  O      -10.065     -32.238      83.460
  H      -12.640     -31.382      76.068
  H      -10.716     -30.053      84.703
  H       -6.905     -30.040      77.675
  H       -8.370     -28.021      81.071
  H      -10.646     -28.541      80.280
  H      -11.626     -29.276      77.362
  H      -10.963     -31.978      77.243
  H      -10.998     -32.294      79.611
  H      -13.719     -30.993      79.880
  H      -12.672     -30.059      81.932
  H      -12.517     -31.815      81.895
  P      -12.193     -34.639      79.300
  C      -13.071     -36.752      80.454
  O      -13.085     -35.339      80.434
  O      -10.717     -34.688      79.524
  O      -12.615     -35.390      77.949
  H      -11.870     -35.372      77.313
  H      -13.563     -37.095      81.367
  H      -12.044     -37.127      80.439
  H      -13.620     -37.138      79.591
  H       -6.905     -29.297      83.376
  H       -7.745     -30.309      84.526
  H       -8.439     -28.782      84.035

 3  4  5  6  7  8  9  10  11  12  13  23  28  29  30  31  32 0
 6-311+G(2d,p)
 ****
 33  34 0
 6-311+G(2d,p)
 ****
 1  2  14  15  16  17  18  19  20  21  22  24  25  26  27 0
 3-21G
 ****
 35  36  37  38  39  40  41  42  43  44  45 0
 3-21G
 ****


