%nproc=1
%NoSave
%Mem=1900MB
#P OB98/GEN NMR

erre ene a

0 1
  C       12.229     -97.043    -595.213
  O       13.181     -98.082    -595.103
  H       11.578     -97.035    -594.333
  H       12.755     -96.086    -595.275
  H       11.630     -97.174    -596.120
  P       12.594     -99.573    -594.982
  C       12.367     -99.582    -592.402
  O       11.692     -99.610    -593.656
  C       11.445     -99.056    -591.314
  O       12.098     -99.248    -590.031
  C       11.096     -97.557    -591.455
  O        9.680     -97.360    -591.364
  C       11.758     -96.912    -590.247
  O       11.009     -95.815    -589.730
  C       11.844     -98.066    -589.252
  N       12.818     -96.384    -584.538
  C       11.677     -96.820    -585.113
  N       11.499     -97.349    -586.343
  C       12.675     -97.438    -586.991
  C       13.926     -97.056    -586.530
  C       13.977     -96.490    -585.246
  N       15.125     -95.999    -584.682
  N       14.899     -97.298    -587.487
  C       14.238     -97.772    -588.521
  N       12.893     -97.857    -588.278
  O       13.884    -100.442    -594.598
  O       11.941    -100.082    -596.224
  H       11.511     -95.461    -588.966
  H       14.035    -101.106    -595.296
  H       10.780     -96.729    -584.502
  H       14.674     -98.016    -589.487
  H       10.896     -98.211    -588.719
  H       12.753     -96.553    -590.532
  H       11.467     -97.125    -592.391
  H       10.526     -99.658    -591.307
  H       13.248     -98.923    -592.481
  H       15.053     -95.501    -583.807
  H       15.964     -95.976    -585.246
  H       12.712    -100.591    -592.162
  P        8.956     -96.822    -592.697
  C        8.464     -94.378    -591.943
  O        9.215     -95.239    -592.797
  O        7.396     -96.936    -592.334
  O        9.285     -97.603    -593.922
  H        6.938     -97.489    -592.999
  H        8.745     -93.362    -592.124
  H        8.663     -94.626    -590.922
  H        7.420     -94.500    -592.142

 6  7  8  9  10  11  12  13  14  15  25  28  32  33  34  35 0
 6-311+G(2d,p)
 ****
 36  39  40 0
 6-311+G(2d,p)
 ****
 1  2  3  4  5  16  17  18  19  20  21  22  23  24 0
 3-21G
 ****
 26  27  29  30  31  37  38  41  42  43  44  45  46  47  48 0
 3-21G
 ****


