%nproc=1
%NoSave
%Mem=1900MB
#P OB98/GEN NMR

erre ene a

0 1
  C      153.888    -578.411    -436.648
  O      155.023    -578.836    -435.923
  H      154.014    -577.358    -436.914
  H      152.994    -578.504    -436.024
  H      153.762    -578.994    -437.566
  P      155.232    -580.404    -435.648
  C      155.369    -579.808    -433.136
  O      155.961    -580.511    -434.221
  C      156.418    -579.521    -432.061
  O      157.044    -580.784    -431.688
  C      157.534    -578.568    -432.531
  O      157.953    -577.772    -431.414
  C      158.625    -579.543    -432.914
  O      159.897    -578.927    -432.952
  C      158.469    -580.606    -431.824
  N      159.163    -581.840    -432.176
  C      160.513    -581.909    -431.865
  O      161.142    -580.993    -431.328
  N      161.167    -583.048    -432.251
  C      160.628    -584.057    -433.010
  O      161.272    -585.014    -433.403
  C      159.203    -583.904    -433.362
  C      158.546    -582.819    -432.930
  O      155.886    -581.180    -436.745
  O      153.761    -580.947    -435.313
  H      160.586    -579.597    -433.108
  H      153.710    -581.910    -435.454
  H      162.143    -583.121    -432.022
  H      158.749    -584.669    -433.971
  H      157.503    -582.668    -433.180
  H      158.852    -580.240    -430.865
  H      158.434    -579.962    -433.905
  H      157.221    -577.917    -433.357
  H      155.918    -579.137    -431.167
  H      154.572    -580.439    -432.724
  H      154.933    -578.873    -433.501
  P      157.705    -576.182    -431.367
  C      160.044    -575.195    -430.992
  O      158.779    -575.473    -430.406
  O      156.284    -575.793    -431.088
  O      158.124    -575.671    -432.827
  H      157.449    -575.055    -433.159
  H      160.677    -574.726    -430.268
  H      159.913    -574.541    -431.829
  H      160.494    -576.109    -431.320

 6  7  8  9  10  11  12  13  14  15  16  26  31  32  33  34  35 0
 6-311+G(2d,p)
 ****
 36  37 0
 6-311+G(2d,p)
 ****
 1  2  3  4  5  17  18  19  20  21  22  23  24  25 0
 3-21G
 ****
 27  28  29  30  38  39  40  41  42  43  44  45 0
 3-21G
 ****


