%nproc=1
%NoSave
%Mem=1900MB
#P OB98/GEN NMR

erre ene a

0 1
  C        7.817       1.171       9.332
  O        9.204       1.361       9.538
  H        7.492       0.311       9.924
  H        7.602       0.974       8.280
  H        7.266       2.054       9.666
  P        9.978       2.382       8.571
  C        9.597       0.568       6.778
  O        9.553       1.960       7.078
  C        9.209       0.303       5.324
  O        7.927       0.892       5.022
  C       10.163       0.906       4.306
  O       11.450       0.333       4.292
  C        9.324       0.882       3.038
  O        9.347      -0.391       2.394
  C        7.910       1.165       3.603
  N        7.462       2.524       3.320
  C        6.914       2.736       2.061
  O        6.820       1.857       1.204
  N        6.502       4.013       1.798
  C        6.626       5.082       2.635
  O        6.255       6.209       2.331
  C        7.249       4.805       3.939
  C        7.631       3.556       4.220
  O       11.461       2.472       8.777
  O        9.212       3.769       8.787
  H        8.997      -0.259       1.492
  H        9.742       4.527       8.437
  H        6.088       4.184       0.894
  H        7.374       5.631       4.624
  H        8.092       3.326       5.178
  H        7.181       0.471       3.163
  H        9.660       1.621       2.308
  H       10.311       1.964       4.558
  H        9.116      -0.780       5.190
  H        8.886       0.062       7.439
  H       10.602       0.183       6.978
  P       12.797       1.181       4.209
  C       12.929       1.089       1.601
  O       12.867       1.890       2.774
  O       14.034       0.525       4.731
  O       12.458       2.426       5.181
  H       13.292       2.682       5.622
  H       12.970       1.722       0.739
  H       12.059       0.468       1.547
  H       13.804       0.474       1.635

 6  7  8  9  10  11  12  13  14  15  16  26  31  32  33  34  35 0
 6-311+G(2d,p)
 ****
 36  37 0
 6-311+G(2d,p)
 ****
 1  2  3  4  5  17  18  19  20  21  22  23  24  25 0
 3-21G
 ****
 27  28  29  30  38  39  40  41  42  43  44  45 0
 3-21G
 ****


