%nproc=1
%NoSave
%Mem=1900MB
#P OB98/GEN NMR

erre ene a

0 1
  C      -29.314     140.990    -183.055
  O      -30.172     142.096    -183.222
  H      -29.474     140.576    -182.054
  H      -28.269     141.295    -183.138
  H      -29.539     140.217    -183.793
  P      -30.013     143.014    -184.530
  C      -32.486     143.621    -184.843
  O      -31.210     144.091    -184.427
  C      -33.197     142.863    -183.721
  O      -33.388     143.743    -182.583
  C      -34.573     142.316    -184.117
  O      -34.689     140.958    -183.685
  C      -35.547     143.200    -183.351
  O      -36.799     142.558    -183.133
  C      -34.726     143.523    -182.098
  N      -35.233     144.678    -181.366
  C      -35.988     144.410    -180.221
  O      -36.226     143.246    -179.894
  N      -36.488     145.460    -179.495
  C      -36.298     146.674    -179.905
  N      -36.828     147.671    -179.147
  C      -35.546     147.003    -181.134
  C      -35.042     145.968    -181.805
  O      -29.957     142.262    -185.817
  O      -28.710     143.897    -184.246
  H      -36.654     141.785    -182.544
  H      -28.359     144.249    -185.101
  H      -35.424     148.030    -181.441
  H      -34.468     146.115    -182.714
  H      -34.704     142.663    -181.414
  H      -35.732     144.119    -183.920
  H      -34.761     142.354    -185.187
  H      -32.536     142.059    -183.376
  H      -37.333     147.403    -178.312
  H      -32.354     142.972    -185.716
  H      -36.747     148.651    -179.372
  H      -33.094     144.487    -185.127
  P      -34.588     139.841    -184.833
  C      -34.069     137.797    -183.330
  O      -35.005     138.431    -184.188
  O      -33.011     139.704    -185.071
  O      -35.310     140.205    -186.089
  H      -32.747     140.201    -185.867
  H      -34.478     136.874    -182.976
  H      -33.858     138.436    -182.498
  H      -33.165     137.604    -183.869

 6  7  8  9  10  11  12  13  14  15  16  26  30  31  32  33  35 0
 6-311+G(2d,p)
 ****
 37  38 0
 6-311+G(2d,p)
 ****
 1  2  3  4  5  17  18  19  20  21  22  23  24  25 0
 3-21G
 ****
 27  28  29  34  36  39  40  41  42  43  44  45  46 0
 3-21G
 ****


