%nproc=1
%NoSave
%Mem=1900MB
#P OB98/GEN NMR

erre ene a

0 1
  C       89.669     113.123      -0.001
  O       90.856     113.352       0.740
  P       90.803     113.595       2.318
  C       91.259     116.153       1.943
  O       90.512     115.140       2.581
  C       90.313     117.293       1.547
  O       89.283     116.802       0.667
  C       89.636     117.910       2.769
  O       90.355     119.047       3.219
  C       88.250     118.238       2.248
  O       88.266     119.480       1.522
  C       87.992     117.056       1.283
  N       87.501     115.787       1.854
  C       86.206     115.716       2.359
  O       85.412     116.651       2.337
  N       85.855     114.515       2.926
  C       86.642     113.402       2.988
  O       86.414     112.431       3.699
  C       87.879     113.458       2.203
  C       88.257     114.633       1.701
  O       92.331     113.425       2.761
  O       89.896     112.684       3.079
  H       88.839     119.351       0.745
  H       92.488     112.533       3.121
  H       84.968     114.501       3.418
  H       88.467     112.556       2.107
  H       89.190     114.707       1.148
  H       87.295     117.344       0.489
  H       87.544     118.373       3.065
  H       89.543     117.164       3.568
  H       90.886     118.055       1.004
  H       91.761     115.747       1.058
  H       92.040     116.524       2.615
  P       91.082     119.010       4.643
  C       89.800     121.194       5.034
  O       90.203     119.958       5.590
  O       92.546     119.299       4.627
  O       90.774     117.529       5.173
  H       91.540     116.947       4.993
  H       89.069     121.658       5.700
  H       89.341     121.042       4.052
  H       90.664     121.856       4.941
  H       89.914     112.984      -1.033
  H       89.017     113.965       0.100
  H       89.180     112.247       0.371

 3  4  5  6  7  8  9  10  11  12  13  23  28  29  30  31  32 0
 6-311+G(2d,p)
 ****
 33  34 0
 6-311+G(2d,p)
 ****
 1  2  14  15  16  17  18  19  20  21  22  24  25  26  27 0
 3-21G
 ****
 35  36  37  38  39  40  41  42  43  44  45 0
 3-21G
 ****


