%nproc=1
%NoSave
%Mem=1900MB
#P OB98/GEN NMR

erre ene a

0 1
  C     -424.476     263.167     228.153
  O     -425.535     262.239     228.311
  H     -423.823     263.149     229.031
  H     -423.889     262.889     227.272
  H     -424.877     264.178     228.008
  P     -426.501     262.455     229.577
  C     -428.297     263.400     227.948
  O     -427.531     263.604     229.129
  C     -429.777     263.288     228.323
  O     -430.211     264.486     229.009
  C     -430.705     263.141     227.118
  O     -430.774     261.801     226.651
  C     -432.025     263.584     227.729
  O     -432.567     262.529     228.543
  C     -431.583     264.766     228.609
  N     -434.610     268.621     227.113
  C     -434.862     267.507     227.834
  N     -433.994     266.534     228.211
  C     -432.754     266.812     227.773
  C     -432.351     267.917     227.034
  C     -433.343     268.850     226.692
  N     -433.098     269.971     225.934
  N     -430.991     267.843     226.753
  C     -430.594     266.719     227.327
  N     -431.625     266.046     227.932
  O     -425.572     263.204     230.645
  O     -427.144     261.222     230.126
  H     -431.854     262.235     229.144
  H     -425.984     263.184     231.531
  H     -435.893     267.366     228.150
  H     -429.574     266.355     227.330
  H     -432.185     264.861     229.523
  H     -432.780     263.825     226.971
  H     -430.433     263.834     226.314
  H     -429.898     262.443     229.018
  H     -427.970     262.480     227.462
  H     -433.900     270.503     225.618
  H     -432.193     270.079     225.498
  H     -428.148     264.244     227.266
  P     -431.468     261.557     225.225
  C     -429.289     262.316     224.017
  O     -430.696     262.504     224.173
  O     -432.889     262.271     225.384
  O     -431.598     260.120     224.831
  H     -433.571     261.815     224.861
  H     -428.915     263.009     223.292
  H     -429.097     261.316     223.687
  H     -428.801     262.482     224.955

 6  7  8  9  10  11  12  13  14  15  25  28  32  33  34  35 0
 6-311+G(2d,p)
 ****
 36  39  40 0
 6-311+G(2d,p)
 ****
 1  2  3  4  5  16  17  18  19  20  21  22  23  24 0
 3-21G
 ****
 26  27  29  30  31  37  38  41  42  43  44  45  46  47 0
 3-21G
 ****
 48 0
 3-21G
 ****


