%nproc=1
%NoSave
%Mem=1900MB
#P OB98/GEN NMR

erre ene a

0 1
  C     -409.381    -160.359       1.833
  O     -408.449    -159.448       2.392
  H     -409.959    -160.810       2.639
  H     -408.842    -161.149       1.297
  H     -410.065    -159.842       1.153
  P     -407.726    -158.432       1.379
  C     -408.215    -156.386       2.905
  O     -407.231    -157.185       2.263
  C     -407.545    -155.298       3.747
  O     -407.024    -155.851       4.964
  C     -406.387    -154.592       3.051
  O     -406.834    -153.556       2.190
  C     -405.643    -154.026       4.254
  O     -406.333    -152.847       4.735
  C     -405.777    -155.166       5.278
  N     -402.730    -158.095       8.088
  C     -403.691    -157.187       8.482
  N     -403.865    -157.029       9.814
  N     -404.423    -156.487       7.644
  C     -404.121    -156.731       6.340
  C     -403.182    -157.603       5.830
  C     -402.399    -158.377       6.765
  O     -401.535    -159.202       6.469
  N     -403.165    -157.576       4.459
  C     -404.075    -156.672       4.148
  N     -404.685    -156.127       5.255
  O     -408.952    -157.836       0.538
  O     -406.700    -159.051       0.482
  H     -405.715    -152.373       5.316
  H     -408.980    -158.279      -0.336
  H     -402.183    -158.600       8.770
  H     -404.341    -156.389       3.140
  H     -405.855    -154.791       6.312
  H     -404.620    -153.723       4.016
  H     -403.320    -157.522      10.512
  H     -405.731    -155.309       2.523
  H     -404.569    -156.367      10.126
  H     -408.326    -154.569       4.028
  H     -408.826    -157.021       3.554
  H     -408.855    -155.929       2.142
  P     -406.075    -153.347       0.791
  C     -407.950    -151.797      -0.117
  O     -406.572    -151.936       0.195
  O     -406.785    -154.423      -0.159
  O     -404.597    -153.542       0.830
  H     -406.159    -155.139      -0.383
  H     -408.132    -150.815      -0.501
  H     -408.533    -151.948       0.767
  H     -408.224    -152.524      -0.853

 6  7  8  9  10  11  12  13  14  15  26  29  33  34 0
 6-311+G(2d,p)
 ****
 36  38  39  40  41 0
 6-311+G(2d,p)
 ****
 1  2  3  4  5  16  17  18  19  20  21  22  23  24  25 0
 3-21G
 ****
 27  28  30  31  32  35  37  42  43  44  45  46  47 0
 3-21G
 ****
 48  49 0
 3-21G
 ****


