%nproc=1
%NoSave
%Mem=1900MB
#P OB98/GEN NMR

erre ene a

0 1
  C     -103.236      14.699       7.610
  O     -102.329      14.265       8.606
  H     -104.238      14.352       7.874
  H     -102.966      14.279       6.637
  H     -103.247      15.791       7.553
  P     -100.783      14.648       8.442
  C      -98.965      14.112       6.688
  O     -100.239      13.769       7.216
  C      -98.327      12.895       6.026
  O      -97.933      11.931       7.021
  C      -99.251      12.164       5.053
  O      -99.274      12.825       3.798
  C      -98.575      10.804       5.002
  O      -97.401      10.875       4.170
  C      -98.173      10.604       6.474
  N      -99.230       6.509       9.269
  C      -98.106       6.808       8.523
  N      -97.145       5.859       8.485
  N      -97.948       7.925       7.862
  C      -99.020       8.745       7.936
  C     -100.195       8.552       8.627
  C     -100.336       7.338       9.402
  O     -101.308       7.041      10.090
  N     -101.080       9.578       8.413
  C     -100.427      10.409       7.624
  N      -99.175       9.942       7.293
  O      -99.939      14.550       9.677
  O     -100.809      16.133       7.848
  H      -96.882      10.070       4.352
  H     -100.766      16.798       8.558
  H      -99.300       5.623       9.742
  H     -100.808      11.357       7.266
  H      -97.243      10.033       6.578
  H      -99.216      10.021       4.596
  H      -97.336       4.896       8.731
  H     -100.258      12.036       5.466
  H      -96.336       6.039       7.904
  H      -97.411      13.229       5.521
  H      -98.345      14.465       7.520
  H      -99.062      14.920       5.955
  P     -100.619      12.897       2.923
  C     -102.045      11.140       1.674
  O     -100.842      11.404       2.384
  O     -100.624      13.949       1.866
  O     -101.789      13.055       3.998
  H     -101.984      13.996       4.235
  H     -102.064      10.113       1.374
  H     -102.092      11.766       0.807
  H     -102.884      11.343       2.306

 6  7  8  9  10  11  12  13  14  15  26  29  33  34 0
 6-311+G(2d,p)
 ****
 36  38  39  40  41 0
 6-311+G(2d,p)
 ****
 1  2  3  4  5  16  17  18  19  20  21  22  23  24  25 0
 3-21G
 ****
 27  28  30  31  32  35  37  42  43  44  45  46  47 0
 3-21G
 ****
 48  49 0
 3-21G
 ****


