%nproc=1
%NoSave
%Mem=1900MB
#P OB98/GEN NMR

erre ene a

0 1
  C     -135.010       3.331     244.963
  O     -135.827       3.222     243.813
  H     -134.003       2.992     244.709
  H     -135.397       2.704     245.771
  H     -134.957       4.371     245.293
  P     -137.381       3.584     243.942
  C     -136.961       5.825     242.716
  O     -137.479       5.182     243.877
  C     -138.075       6.089     241.706
  O     -139.142       6.839     242.321
  C     -137.638       6.904     240.495
  O     -136.884       6.114     239.602
  C     -138.986       7.375     239.971
  O     -139.645       6.332     239.240
  C     -139.736       7.672     241.294
  N     -139.699       9.077     241.684
  C     -140.937       9.732     241.746
  O     -141.970       9.127     241.468
  N     -140.957      11.059     242.104
  C     -139.853      11.665     242.417
  N     -139.945      12.978     242.768
  C     -138.534      11.002     242.398
  C     -138.528       9.728     242.014
  O     -138.112       2.966     245.094
  O     -138.002       3.126     242.539
  H     -140.522       6.690     238.985
  H     -138.359       2.220     242.602
  H     -137.643      11.545     242.675
  H     -137.599       9.166     241.975
  H     -140.787       7.369     241.213
  H     -138.896       8.231     239.303
  H     -137.065       7.785     240.818
  H     -138.490       5.119     241.396
  H     -140.874      13.384     242.786
  H     -136.213       5.149     242.283
  H     -139.185      13.500     243.182
  H     -136.464       6.763     242.985
  P     -135.903       6.770     238.516
  C     -134.089       6.294     240.280
  O     -134.592       7.226     239.332
  O     -136.515       7.834     237.670
  O     -135.370       5.513     237.681
  H     -136.064       5.207     237.040
  H     -133.223       6.703     240.757
  H     -133.825       5.385     239.781
  H     -134.840       6.093     241.015

 6  7  8  9  10  11  12  13  14  15  16  26  30  31  32  33  35 0
 6-311+G(2d,p)
 ****
 37  38 0
 6-311+G(2d,p)
 ****
 1  2  3  4  5  17  18  19  20  21  22  23  24  25 0
 3-21G
 ****
 27  28  29  34  36  39  40  41  42  43  44  45  46 0
 3-21G
 ****


