%nproc=1
%NoSave
%Mem=1900MB
#P OB98/GEN NMR

erre ene a

0 1
  C      -94.342     -31.488     255.816
  O      -94.655     -30.194     255.297
  P      -96.030     -29.489     255.723
  C      -97.946     -30.958     254.804
  O      -97.151     -30.622     255.933
  C      -99.319     -31.508     255.247
  O      -99.135     -32.609     256.174
  C     -100.192     -30.446     255.937
  O     -101.510     -30.359     255.385
  C     -100.109     -30.824     257.406
  O     -101.217     -30.348     258.162
  C      -99.914     -32.346     257.355
  N      -99.275     -32.857     258.573
  C     -100.121     -33.238     259.607
  O     -101.343     -33.087     259.571
  N      -99.504     -33.738     260.731
  C      -98.162     -33.822     260.933
  O      -97.658     -34.237     261.974
  C      -97.315     -33.346     259.826
  C      -97.903     -32.896     258.714
  O      -96.457     -28.334     254.877
  O      -95.738     -29.017     257.230
  H     -102.043     -30.675     257.744
  H      -96.161     -28.140     257.354
  H     -100.106     -34.030     261.484
  H      -96.240     -33.377     259.963
  H      -97.305     -32.529     257.887
  H     -100.880     -32.861     257.255
  H      -99.209     -30.368     257.833
  H      -99.785     -29.437     255.802
  H      -99.819     -31.888     254.347
  H      -97.440     -31.719     254.213
  H      -98.056     -30.081     254.160
  P     -101.916     -29.431     254.151
  C     -103.191     -27.730     255.640
  O     -102.157     -27.942     254.694
  O     -102.996     -29.958     253.266
  O     -100.542     -29.304     253.328
  H     -100.737     -29.351     252.372
  H     -103.467     -26.667     255.617
  H     -102.834     -27.985     256.639
  H     -104.081     -28.328     255.401
  H      -93.395     -31.807     255.432
  H      -95.099     -32.184     255.520
  H      -94.297     -31.443     256.884

 3  4  5  6  7  8  9  10  11  12  13  23  28  29  30  31  32 0
 6-311+G(2d,p)
 ****
 33  34 0
 6-311+G(2d,p)
 ****
 1  2  14  15  16  17  18  19  20  21  22  24  25  26  27 0
 3-21G
 ****
 35  36  37  38  39  40  41  42  43  44  45 0
 3-21G
 ****


