%nproc=1
%NoSave
%Mem=1900MB
#P OB98/GEN NMR

erre ene a

0 1
  C      562.049     121.331    -484.646
  O      562.587     120.804    -483.409
  P      562.589     119.210    -483.172
  C      564.812     118.878    -484.515
  O      563.454     118.516    -484.336
  C      565.705     118.019    -483.621
  O      565.674     116.638    -484.048
  C      567.179     118.406    -483.634
  O      567.432     119.569    -482.854
  C      567.828     117.146    -483.077
  O      567.786     117.138    -481.634
  C      566.924     116.031    -483.655
  N      567.554     115.333    -484.777
  C      568.709     114.606    -484.498
  O      569.229     114.590    -483.372
  N      569.267     113.943    -485.541
  C      568.835     113.968    -486.840
  O      569.401     113.366    -487.746
  C      567.669     114.815    -487.101
  C      567.089     115.458    -486.072
  O      561.092     118.812    -483.584
  O      562.891     118.765    -481.780
  H      566.836     117.155    -481.393
  H      560.822     118.011    -483.095
  H      570.095     113.379    -485.352
  H      567.300     114.887    -488.125
  H      566.233     116.084    -486.256
  H      566.682     115.297    -482.882
  H      568.880     117.058    -483.354
  H      567.507     118.547    -484.678
  H      565.315     118.056    -482.592
  H      564.938     119.936    -484.245
  H      565.090     118.755    -485.572
  P      568.417     120.666    -483.498
  C      566.554     122.494    -483.654
  O      567.468     121.644    -484.315
  O      569.170     119.781    -484.598
  O      569.322     121.299    -482.487
  H      568.586     119.098    -484.988
  H      566.926     122.802    -482.661
  H      565.603     121.952    -483.519
  H      566.354     123.388    -484.262
  H      562.123     122.398    -484.641
  H      561.022     121.046    -484.738
  H      562.604     120.938    -485.472

 3  4  5  6  7  8  9  10  11  12  13  23  28  29  30  31  32 0
 6-311+G(2d,p)
 ****
 33  34 0
 6-311+G(2d,p)
 ****
 1  2  14  15  16  17  18  19  20  21  22  24  25  26 0
 3-21G
 ****
 27  35  36  37  38  39  40  41  42  43  44  45 0
 3-21G
 ****


