%nproc=1
%NoSave
%Mem=1900MB
#P OB98/GEN NMR

erre ene a

0 1
  C       75.598     -30.795     -10.063
  O       75.462     -30.266     -11.366
  H       75.950     -31.826     -10.139
  H       74.638     -30.790      -9.542
  H       76.333     -30.217      -9.494
  P       74.848     -28.796     -11.532
  C       75.996     -28.434     -13.821
  O       74.772     -28.507     -13.107
  C       75.799     -28.844     -15.286
  O       75.644     -30.290     -15.353
  C       74.556     -28.221     -15.942
  O       74.839     -28.074     -17.339
  C       73.524     -29.308     -15.716
  O       72.384     -29.112     -16.515
  C       74.372     -30.555     -15.982
  N       73.755     -31.771     -15.477
  C       72.612     -32.209     -16.150
  O       72.171     -31.571     -17.106
  N       71.978     -33.341     -15.706
  C       72.408     -33.943     -14.642
  N       71.727     -35.051     -14.245
  C       73.578     -33.479     -13.866
  C       74.200     -32.400     -14.339
  O       75.505     -27.723     -10.730
  O       73.310     -28.972     -11.122
  H       71.659     -29.721     -16.247
  H       73.162     -28.597     -10.234
  H       73.884     -34.005     -12.975
  H       75.068     -31.983     -13.837
  H       74.557     -30.679     -17.057
  H       73.181     -29.302     -14.677
  H       74.281     -27.257     -15.507
  H       76.708     -28.595     -15.846
  H       70.926     -35.327     -14.800
  H       76.701     -29.115     -13.335
  H       71.956     -35.588     -13.423
  H       76.400     -27.418     -13.775
  P       75.133     -26.653     -18.022
  C       77.100     -27.195     -19.602
  O       75.713     -26.886     -19.498
  O       75.960     -25.735     -17.182
  O       73.689     -26.013     -18.288
  H       73.755     -25.042     -18.229
  H       77.360     -27.326     -20.632
  H       77.306     -28.097     -19.065
  H       77.676     -26.394     -19.188

 6  7  8  9  10  11  12  13  14  15  16  26  30  31  32  33  35 0
 6-311+G(2d,p)
 ****
 37  38 0
 6-311+G(2d,p)
 ****
 1  2  3  4  5  17  18  19  20  21  22  23  24  25 0
 3-21G
 ****
 27  28  29  34  36  39  40  41  42  43  44  45  46 0
 3-21G
 ****


