%nproc=1
%NoSave
%Mem=1900MB
#P OB98/GEN NMR

erre ene a

0 1
  C     -300.983     114.002      25.093
  O     -300.760     113.780      23.696
  P     -299.277     113.361      23.243
  C     -300.221     110.923      23.325
  O     -299.403     111.867      22.657
  C     -301.349     110.427      22.408
  O     -302.011     111.570      21.781
  C     -300.883     109.488      21.287
  O     -301.917     108.502      21.116
  C     -300.820     110.404      20.078
  O     -300.901     109.677      18.856
  C     -302.013     111.326      20.360
  N     -301.950     112.574      19.600
  C     -302.233     112.495      18.239
  O     -302.445     111.433      17.657
  N     -302.214     113.684      17.558
  C     -301.868     114.903      18.074
  O     -301.872     115.933      17.420
  C     -301.466     114.902      19.495
  C     -301.527     113.754      20.178
  O     -298.552     113.178      24.653
  O     -298.641     114.356      22.328
  H     -299.132     112.791      25.339
  H     -301.634     109.025      18.922
  H     -302.446     113.655      16.575
  H     -301.128     115.835      19.923
  H     -301.217     113.716      21.216
  H     -302.952     110.819      20.114
  H     -299.881     110.967      20.082
  H     -299.933     108.989      21.510
  H     -302.096     109.920      23.032
  H     -300.672     111.382      24.216
  H     -299.603     110.086      23.677
  P     -301.521     106.951      21.295
  C     -302.305     106.067      23.636
  O     -302.608     106.295      22.273
  O     -300.227     107.098      22.235
  O     -301.231     106.221      20.020
  H     -300.369     107.701      22.982
  H     -303.232     105.851      24.170
  H     -301.841     106.946      24.089
  H     -301.630     105.209      23.726
  H     -302.006     114.273      25.252
  H     -300.348     114.792      25.434
  H     -300.762     113.107      25.636

 3  4  5  6  7  8  9  10  11  12  13  24  28  29  30  31  32 0
 6-311+G(2d,p)
 ****
 33  34 0
 6-311+G(2d,p)
 ****
 1  2  14  15  16  17  18  19  20  21  22  23  25  26  27 0
 3-21G
 ****
 35  36  37  38  39  40  41  42  43  44  45 0
 3-21G
 ****


