%nproc=1
%NoSave
%Mem=1900MB
#P OB98/GEN NMR

erre ene a

0 1
  C      368.236    -367.524    -452.181
  O      367.048    -368.290    -452.149
  H      368.995    -368.025    -451.574
  H      368.049    -366.526    -451.763
  H      368.606    -367.432    -453.205
  P      365.835    -367.792    -453.073
  C      365.079    -365.783    -451.586
  O      365.679    -366.213    -452.801
  C      364.702    -364.309    -451.682
  O      364.171    -363.877    -450.399
  C      365.898    -363.395    -452.012
  O      365.462    -362.335    -452.862
  C      366.292    -362.839    -450.653
  O      366.999    -361.607    -450.722
  C      364.920    -362.717    -449.978
  N      365.013    -362.661    -448.521
  C      365.585    -361.529    -447.957
  O      365.948    -360.534    -448.587
  N      365.738    -361.558    -446.592
  C      365.401    -362.595    -445.770
  O      365.585    -362.571    -444.552
  C      364.816    -363.769    -446.426
  C      364.648    -363.757    -447.752
  O      364.540    -368.411    -452.354
  O      365.921    -368.160    -454.512
  H      364.340    -369.297    -452.717
  H      367.320    -361.392    -449.822
  H      366.148    -360.741    -446.163
  H      364.546    -364.611    -445.798
  H      364.226    -364.609    -448.263
  H      364.390    -361.835    -450.350
  H      366.922    -363.555    -450.119
  H      366.726    -363.934    -452.482
  H      363.901    -364.188    -452.427
  H      365.795    -365.930    -450.766
  H      364.185    -366.393    -451.392
  P      365.620    -362.546    -454.448
  C      368.154    -361.920    -454.691
  O      367.163    -362.944    -454.684
  O      365.510    -361.042    -454.978
  O      364.614    -363.500    -455.015
  H      365.924    -360.390    -454.393
  H      369.116    -362.356    -454.859
  H      368.152    -361.415    -453.748
  H      367.938    -361.220    -455.471

 6  7  8  9  10  11  12  13  14  15  16  27  31  32  33  34  35 0
 6-311+G(2d,p)
 ****
 36  37 0
 6-311+G(2d,p)
 ****
 1  2  3  4  5  17  18  19  20  21  22  23  24  25 0
 3-21G
 ****
 26  28  29  30  38  39  40  41  42  43  44  45 0
 3-21G
 ****


