%nproc=1
%NoSave
%Mem=1900MB
#P OB98/GEN NMR

erre ene a

0 1
  C      688.516      41.825    -747.718
  O      688.578      41.004    -748.864
  H      687.475      42.132    -747.560
  H      689.126      42.715    -747.867
  H      688.858      41.279    -746.832
  P      689.976      40.272    -749.155
  C      692.382      41.249    -749.271
  O      691.010      41.422    -749.590
  C      693.238      42.236    -750.054
  O      692.994      43.584    -749.602
  C      694.741      42.006    -749.925
  O      695.199      40.992    -750.807
  C      695.268      43.374    -750.333
  O      695.203      43.509    -751.768
  C      694.246      44.314    -749.669
  N      694.999      48.292    -746.608
  C      694.636      48.254    -747.941
  N      694.445      49.443    -748.549
  N      694.464      47.147    -748.619
  C      694.698      46.036    -747.887
  C      695.066      45.939    -746.561
  C      695.232      47.170    -745.822
  O      695.536      47.261    -744.633
  N      695.194      44.639    -746.164
  C      694.928      43.939    -747.251
  N      694.627      44.736    -748.325
  O      689.708      39.481    -750.522
  O      690.456      39.353    -748.078
  H      695.719      42.761    -752.143
  H      690.198      38.632    -750.495
  H      695.128      49.169    -746.135
  H      694.937      42.853    -747.314
  H      694.076      45.221    -750.253
  H      696.300      43.532    -750.037
  H      694.607      50.334    -748.097
  H      695.025      41.803    -748.885
  H      694.144      49.438    -749.512
  H      692.931      42.186    -751.110
  H      692.684      40.225    -749.519
  H      692.513      41.404    -748.196
  P      696.598      40.284    -750.461
  C      698.972      41.338    -750.272
  O      697.733      41.290    -750.985
  O      696.662      39.080    -751.515
  O      696.735      39.814    -749.051
  H      697.254      38.378    -751.186
  H      699.623      42.049    -750.736
  H      699.430      40.371    -750.288
  H      698.789      41.630    -749.259

 6  7  8  9  10  11  12  13  14  15  26  29  33  34 0
 6-311+G(2d,p)
 ****
 36  38  39  40  41 0
 6-311+G(2d,p)
 ****
 1  2  3  4  5  16  17  18  19  20  21  22  23  24  25 0
 3-21G
 ****
 27  28  30  31  32  35  37  42  43  44  45  46  47 0
 3-21G
 ****
 48  49 0
 3-21G
 ****


