%nproc=1
%NoSave
%Mem=1900MB
#P OB98/GEN NMR

erre ene a

0 1
  C      315.331    -687.434    -184.456
  O      316.503    -687.208    -185.243
  P      317.808    -686.530    -184.601
  C      319.408    -688.422    -185.301
  O      319.109    -687.032    -185.408
  C      320.455    -688.906    -186.288
  O      319.949    -688.887    -187.647
  C      321.768    -688.108    -186.292
  O      322.802    -689.047    -186.593
  C      321.559    -687.139    -187.435
  O      322.772    -686.580    -187.922
  C      320.802    -688.031    -188.438
  N      320.056    -687.249    -189.418
  C      320.532    -687.267    -190.734
  O      321.578    -687.869    -191.016
  N      319.842    -686.567    -191.700
  C      318.832    -685.827    -191.362
  N      318.207    -685.129    -192.336
  C      318.338    -685.719    -189.959
  C      318.990    -686.467    -189.061
  O      317.908    -686.658    -183.117
  O      317.690    -684.987    -185.027
  H      322.559    -685.924    -188.607
  H      318.114    -684.429    -184.340
  H      317.510    -685.066    -189.713
  H      318.709    -686.460    -188.014
  H      321.517    -688.692    -188.975
  H      320.914    -686.308    -187.114
  H      321.959    -687.590    -185.344
  H      320.666    -689.958    -186.053
  H      318.586    -685.207    -193.283
  H      318.469    -688.975    -185.458
  H      317.483    -684.452    -192.170
  H      319.730    -688.636    -184.272
  P      323.948    -689.417    -185.536
  C      323.436    -691.913    -185.792
  O      324.424    -690.916    -185.858
  O      323.598    -689.183    -184.113
  O      325.210    -688.514    -185.968
  H      325.848    -688.479    -185.228
  H      323.802    -692.840    -186.237
  H      322.521    -691.599    -186.335
  H      323.170    -692.104    -184.736
  H      314.577    -687.892    -185.062
  H      314.968    -686.500    -184.080
  H      315.570    -688.079    -183.637

 3  4  5  6  7  8  9  10  11  12  13  23  27  28  29  30  32 0
 6-311+G(2d,p)
 ****
 34  35 0
 6-311+G(2d,p)
 ****
 1  2  14  15  16  17  18  19  20  21  22  24  25  26 0
 3-21G
 ****
 31  33  36  37  38  39  40  41  42  43  44  45  46 0
 3-21G
 ****


