%nproc=1
%NoSave
%Mem=1900MB
#P OB98/GEN NMR

erre ene a

0 1
  C       47.232     262.282     998.536
  O       48.583     262.391     998.925
  H       46.648     261.935     999.388
  H       47.125     261.567     997.720
  H       46.853     263.262     998.229
  P       49.624     262.859     997.795
  C       49.890     265.230     998.797
  O       49.427     264.452     997.705
  C       50.492     266.547     998.299
  O       51.829     266.339     997.812
  C       49.721     267.193     997.159
  O       48.627     267.953     997.663
  C       50.787     268.094     996.562
  O       50.898     269.303     997.339
  C       52.063     267.256     996.718
  N       54.122     267.506     992.021
  C       53.691     268.469     992.858
  N       53.102     268.332     994.076
  C       52.993     267.032     994.401
  C       53.382     265.938     993.638
  C       53.984     266.220     992.403
  N       54.423     265.231     991.544
  N       53.102     264.759     994.299
  C       52.609     265.134     995.458
  N       52.481     266.501     995.548
  O       49.559     262.113     996.503
  O       51.013     262.729     998.583
  H       50.028     269.749     997.289
  H       50.918     263.039     999.500
  H       53.825     269.493     992.519
  H       52.336     264.463     996.270
  H       52.927     267.875     997.009
  H       50.566     268.391     995.539
  H       49.403     266.457     996.409
  H       50.571     267.223     999.165
  H       50.647     264.679     999.371
  H       54.656     265.506     990.600
  H       54.195     264.270     991.768
  H       49.035     265.423     999.455
  P       47.354     268.278     996.743
  C       46.231     266.015     997.222
  O       46.830     266.850     996.233
  O       47.600     269.301     995.690
  O       46.226     268.730     997.784
  H       45.506     269.192     997.322
  H       45.921     265.095     996.772
  H       45.381     266.512     997.641
  H       46.942     265.812     997.995

 6  7  8  9  10  11  12  13  14  15  25  28  32  33  34  35 0
 6-311+G(2d,p)
 ****
 36  39  40 0
 6-311+G(2d,p)
 ****
 1  2  3  4  5  16  17  18  19  20  21  22  23  24 0
 3-21G
 ****
 26  27  29  30  31  37  38  41  42  43  44  45  46  47 0
 3-21G
 ****
 48 0
 3-21G
 ****


