%nproc=1
%NoSave
%Mem=1900MB
#P OB98/GEN NMR

erre ene a

0 1
  C      -98.720     337.719     211.564
  O      -99.785     336.819     211.235
  P      -99.894     336.329     209.709
  C      -99.742     333.793     210.369
  O     -100.500     334.843     209.777
  C     -100.674     332.692     210.866
  O     -101.423     333.142     212.023
  C     -101.723     332.251     209.847
  O     -101.150     331.452     208.824
  C     -102.714     331.530     210.751
  O     -102.260     330.201     211.035
  C     -102.663     332.398     212.034
  N     -103.818     333.274     212.177
  C     -104.801     332.858     213.069
  O     -104.727     331.796     213.701
  N     -105.880     333.685     213.209
  C     -106.086     334.850     212.533
  O     -107.072     335.560     212.705
  C     -105.037     335.222     211.557
  C     -103.971     334.430     211.427
  O      -98.351     336.114     209.340
  O     -100.628     337.292     208.837
  H      -97.825     335.784     210.091
  H     -102.423     329.676     210.222
  H     -106.596     333.406     213.860
  H     -105.181     336.129     210.985
  H     -103.193     334.682     210.712
  H     -102.624     331.747     212.921
  H     -103.714     331.451     210.298
  H     -102.203     333.138     209.404
  H     -100.059     331.829     211.168
  H      -99.157     334.180     211.209
  H      -99.036     333.409     209.626
  P     -101.672     331.701     207.326
  C     -100.614     334.087     207.160
  O     -100.674     332.767     206.672
  O     -103.012     332.538     207.600
  O     -101.883     330.448     206.548
  H     -102.892     333.233     208.275
  H      -99.667     334.541     206.845
  H     -100.662     334.108     208.253
  H     -101.436     334.673     206.746
  H      -98.766     337.961     212.605
  H      -98.817     338.614     210.985
  H      -97.781     337.254     211.347

 3  4  5  6  7  8  9  10  11  12  13  24  28  29  30  31  32 0
 6-311+G(2d,p)
 ****
 33  34 0
 6-311+G(2d,p)
 ****
 1  2  14  15  16  17  18  19  20  21  22  23  25  26  27 0
 3-21G
 ****
 35  36  37  38  39  40  41  42  43  44  45 0
 3-21G
 ****


