%nproc=1
%NoSave
%Mem=1900MB
#P OB98/GEN NMR

erre ene a

0 1
  C       12.728    -227.110    -121.197
  O       11.419    -227.523    -121.608
  P       10.752    -228.718    -120.763
  C       11.409    -230.633    -122.391
  O       11.557    -230.070    -121.093
  C       12.015    -232.038    -122.475
  O       13.426    -231.968    -122.152
  C       11.389    -233.068    -121.527
  O       11.347    -234.337    -122.190
  C       12.406    -233.175    -120.406
  O       12.301    -234.407    -119.697
  C       13.703    -233.000    -121.191
  N       16.902    -234.532    -117.585
  C       15.951    -235.248    -118.285
  N       15.820    -236.554    -117.959
  N       15.197    -234.734    -119.220
  C       15.460    -233.426    -119.462
  C       16.383    -232.611    -118.845
  C       17.182    -233.188    -117.783
  O       18.005    -232.588    -117.091
  N       16.357    -231.341    -119.366
  C       15.415    -231.385    -120.286
  N       14.836    -232.627    -120.379
  O        9.334    -228.924    -121.477
  O       10.590    -228.411    -119.310
  H       11.459    -234.384    -119.204
  H        8.616    -228.831    -120.824
  H       17.442    -234.973    -116.860
  H       15.096    -230.552    -120.896
  H       13.963    -233.914    -121.740
  H       12.251    -232.356    -119.692
  H       16.412    -237.029    -117.296
  H       10.392    -232.802    -121.167
  H       15.158    -237.108    -118.492
  H       11.936    -232.382    -123.513
  H       11.898    -229.988    -123.123
  H       10.343    -230.669    -122.636
  P        9.968    -234.713    -122.928
  C        9.174    -236.398    -121.112
  O        8.961    -235.162    -121.765
  O       10.318    -236.082    -123.680
  O        9.470    -233.661    -123.863
  H        9.749    -236.190    -124.468
  H       10.147    -236.833    -121.355
  H        8.389    -237.097    -121.415
  H        9.114    -236.241    -120.032
  H       13.066    -226.315    -121.828
  H       13.403    -227.937    -121.273
  H       12.693    -226.770    -120.183

 3  4  5  6  7  8  9  10  11  12  23  26  30  31  33  0
 6-311+G(2d,p)
 ****
 35  36  37  38 0
 6-311+G(2d,p)
 ****
 1  2  13  14  15  16  17  18  19  20  21  22  24  25  27  28  29 0
 3-21G
 ****
 32  34  39  40  41  42  43  44  45  46  47  48  49 0
 3-21G
 ****


