%nproc=1
%NoSave
%Mem=1900MB
#P OB98/GEN NMR

erre ene a

0 1
  C     -287.686      -0.638    -715.538
  O     -287.038      -1.234    -716.638
  H     -288.613      -1.183    -715.336
  H     -287.937       0.401    -715.765
  H     -287.060      -0.681    -714.642
  P     -285.554      -0.757    -717.019
  C     -286.333       1.130    -718.596
  O     -285.653       0.800    -717.390
  C     -285.333       1.257    -719.739
  O     -286.029       1.418    -720.994
  C     -284.400       2.454    -719.619
  O     -283.390       2.223    -718.657
  C     -283.903       2.569    -721.058
  O     -282.856       1.620    -721.316
  C     -285.183       2.217    -721.854
  N     -285.897       3.395    -722.353
  C     -285.280       4.105    -723.372
  O     -284.178       3.818    -723.823
  N     -285.973       5.194    -723.842
  C     -287.153       5.667    -723.349
  O     -287.710       6.675    -723.772
  C     -287.741       4.887    -722.250
  C     -287.102       3.807    -721.808
  O     -284.831      -1.601    -718.020
  O     -284.795      -0.738    -715.605
  H     -283.210       0.744    -721.082
  H     -284.254      -1.546    -715.513
  H     -285.537       5.733    -724.575
  H     -288.680       5.237    -721.827
  H     -287.514       3.223    -720.998
  H     -284.929       1.583    -722.719
  H     -283.493       3.555    -721.288
  H     -284.975       3.359    -719.379
  H     -284.756       0.323    -719.792
  H     -286.847       2.087    -718.460
  H     -287.072       0.355    -718.809
  P     -282.568       3.442    -718.025
  C     -280.459       2.819    -719.338
  O     -281.411       3.838    -719.061
  O     -282.103       3.228    -716.621
  O     -283.583       4.676    -718.110
  H     -283.937       4.877    -717.223
  H     -279.736       3.186    -720.036
  H     -280.958       1.969    -719.755
  H     -279.967       2.535    -718.431

 6  7  8  9  10  11  12  13  14  15  16  26  31  32  33  34  35 0
 6-311+G(2d,p)
 ****
 36  37 0
 6-311+G(2d,p)
 ****
 1  2  3  4  5  17  18  19  20  21  22  23  24  25 0
 3-21G
 ****
 27  28  29  30  38  39  40  41  42  43  44  45 0
 3-21G
 ****


