%nproc=1
%NoSave
%Mem=1900MB
#P OB98/GEN NMR

erre ene a

0 1
  C      202.526    -104.086    -292.240
  O      201.378    -103.294    -292.574
  P      200.011    -103.584    -291.781
  C      199.795    -101.266    -290.614
  O      199.994    -102.667    -290.464
  C      198.824    -100.746    -289.558
  O      199.280    -101.061    -288.224
  C      198.661     -99.233    -289.579
  O      197.813     -98.836    -290.642
  C      198.087     -98.951    -288.191
  O      196.654     -98.996    -288.190
  C      198.679    -100.098    -287.332
  N      199.632     -99.627    -286.341
  C      199.104     -98.825    -285.316
  O      197.910     -98.543    -285.308
  N      199.960     -98.354    -284.350
  C      201.233     -98.626    -284.416
  N      202.021     -98.124    -283.438
  C      201.826     -99.445    -285.485
  C      200.973     -99.905    -286.413
  O      200.236    -105.061    -291.204
  O      198.792    -103.506    -292.638
  H      196.360     -98.203    -288.679
  H      199.388    -105.534    -291.161
  H      202.890     -99.642    -285.509
  H      201.328    -100.518    -287.242
  H      197.872    -100.630    -286.807
  H      198.380     -97.959    -287.836
  H      199.652     -98.753    -289.671
  H      197.850    -101.227    -289.716
  H      201.577     -97.571    -282.713
  H      199.419    -101.038    -291.615
  H      203.027     -98.274    -283.394
  H      200.780    -100.771    -290.525
  P      198.213     -97.535    -291.478
  C      200.170     -98.940    -292.394
  O      199.786     -97.718    -291.793
  O      198.249     -96.404    -290.340
  O      197.349     -97.159    -292.627
  H      198.391     -95.528    -290.744
  H      201.204     -98.858    -292.754
  H      199.522     -99.162    -293.261
  H      200.109     -99.755    -291.665
  H      203.356    -103.783    -292.844
  H      202.312    -105.119    -292.420
  H      202.767    -103.947    -291.207

 3  4  5  6  7  8  9  10  11  12  13  21  23  27  28  29  30  32 0
 6-311+G(2d,p)
 ****
 34  35 0
 6-311+G(2d,p)
 ****
 1  2  14  15  16  17  18  19  20  22  24  25  26 0
 3-21G
 ****
 31  33  36  37  38  39  40  41  42  43  44  45  46 0
 3-21G
 ****


