%nproc=1
%NoSave
%Mem=1900MB
#P OB98/GEN NMR

erre ene a

0 1
  C       25.145      50.307    -112.356
  O       25.172      50.407    -113.766
  H       25.079      49.250    -112.082
  H       24.277      50.829    -111.945
  H       26.063      50.720    -111.931
  P       25.105      51.861    -114.439
  C       22.542      52.044    -114.628
  O       23.713      52.514    -113.974
  C       21.566      53.194    -114.884
  O       21.032      53.641    -113.606
  C       22.204      54.402    -115.581
  O       21.252      54.953    -116.494
  C       22.456      55.353    -114.429
  O       22.542      56.695    -114.871
  C       21.281      55.054    -113.491
  N       21.588      55.447    -112.117
  C       21.220      56.745    -111.741
  O       20.654      57.487    -112.547
  N       21.556      57.196    -110.490
  C       22.251      56.440    -109.696
  N       22.585      56.963    -108.485
  C       22.686      55.074    -110.061
  C       22.321      54.644    -111.269
  O       25.362      51.919    -115.909
  O       26.192      52.706    -113.620
  H       21.691      56.957    -115.285
  H       27.062      52.646    -114.058
  H       23.267      54.486    -109.367
  H       22.605      53.659    -111.628
  H       20.378      55.585    -113.816
  H       23.406      55.100    -113.941
  H       23.128      54.149    -116.113
  H       20.719      52.809    -115.466
  H       22.286      57.912    -108.292
  H       22.069      51.297    -113.977
  H       23.157      56.485    -107.803
  H       22.813      51.565    -115.575
  P       21.425      54.753    -118.075
  C       23.167      56.614    -118.320
  O       22.900      55.229    -118.511
  O       20.319      55.333    -118.904
  O       21.482      53.159    -118.255
  H       21.115      52.921    -119.130
  H       24.166      56.832    -118.637
  H       23.060      56.858    -117.284
  H       22.476      57.193    -118.896

 6  7  8  9  10  11  12  13  14  15  16  26  30  31  32  33  35 0
 6-311+G(2d,p)
 ****
 37  38 0
 6-311+G(2d,p)
 ****
 1  2  3  4  5  17  18  19  20  21  22  23  24  25 0
 3-21G
 ****
 27  28  29  34  36  39  40  41  42  43  44  45  46 0
 3-21G
 ****


