%nproc=1
%NoSave
%Mem=1900MB
#P OB98/GEN NMR

erre ene a

0 1
  C     -443.348    -403.457    -143.369
  O     -444.543    -403.868    -142.729
  P     -445.324    -405.192    -143.199
  C     -446.035    -405.899    -140.816
  O     -446.457    -405.417    -142.090
  C     -447.162    -405.723    -139.795
  O     -447.417    -404.319    -139.599
  C     -448.497    -406.332    -140.216
  O     -448.479    -407.744    -140.059
  C     -449.454    -405.575    -139.308
  O     -449.445    -406.150    -137.982
  C     -448.817    -404.169    -139.269
  N     -449.476    -403.228    -140.178
  C     -450.626    -402.598    -139.690
  O     -451.041    -402.818    -138.556
  N     -451.262    -401.686    -140.497
  C     -450.809    -401.445    -141.700
  N     -451.439    -400.482    -142.420
  C     -449.630    -402.131    -142.258
  C     -449.019    -402.997    -141.459
  O     -444.452    -406.378    -143.453
  O     -446.170    -404.724    -144.472
  H     -448.508    -406.218    -137.716
  H     -445.676    -404.808    -145.329
  H     -449.297    -401.905    -143.264
  H     -448.138    -403.527    -141.790
  H     -448.847    -403.762    -138.253
  H     -450.489    -405.580    -139.665
  H     -448.713    -406.090    -141.262
  H     -446.829    -406.151    -138.842
  H     -452.130    -399.918    -141.928
  H     -445.169    -405.321    -140.493
  H     -450.996    -400.037    -143.213
  H     -445.752    -406.954    -140.904
  P     -448.571    -408.635    -141.393
  C     -446.829    -410.385    -140.562
  O     -448.173    -410.130    -140.942
  O     -447.319    -408.134    -142.257
  O     -449.860    -408.507    -142.136
  H     -447.616    -407.518    -142.954
  H     -446.793    -411.351    -140.071
  H     -446.483    -409.614    -139.869
  H     -446.193    -410.400    -141.450
  H     -442.988    -402.560    -142.910
  H     -443.543    -403.275    -144.405
  H     -442.610    -404.226    -143.275

 3  4  5  6  7  8  9  10  11  12  13  23  27  28  29  30  32 0
 6-311+G(2d,p)
 ****
 34  35 0
 6-311+G(2d,p)
 ****
 1  2  14  15  16  17  18  19  20  21  22  24  25  26 0
 3-21G
 ****
 31  33  36  37  38  39  40  41  42  43  44  45  46 0
 3-21G
 ****


