%nproc=1
%NoSave
%Mem=1900MB
#P OB98/GEN NMR

erre ene a

0 1
  C      586.122     260.657    -470.226
  O      585.078     259.719    -470.400
  H      587.066     260.118    -470.128
  H      585.950     261.242    -469.317
  H      586.181     261.323    -471.090
  P      583.605     260.321    -470.605
  C      583.158     258.779    -472.660
  O      582.765     259.177    -471.353
  C      583.921     257.449    -472.598
  O      583.114     256.481    -471.863
  C      584.213     256.840    -473.979
  O      585.430     256.085    -473.898
  C      583.040     255.882    -474.146
  O      583.308     254.953    -475.166
  C      582.956     255.334    -472.725
  N      580.847     250.987    -471.094
  C      582.133     251.392    -471.178
  N      582.612     252.573    -471.616
  C      581.607     253.391    -471.969
  C      580.249     253.119    -471.947
  C      579.874     251.846    -471.486
  N      578.565     251.421    -471.423
  N      579.529     254.202    -472.414
  C      580.436     255.115    -472.710
  N      581.704     254.665    -472.455
  O      583.818     261.436    -471.731
  O      582.957     260.875    -469.381
  H      582.528     254.393    -475.350
  H      583.982     262.303    -471.315
  H      582.875     250.668    -470.845
  H      580.236     256.097    -473.112
  H      583.764     254.629    -472.499
  H      582.130     256.421    -474.418
  H      584.293     257.584    -474.773
  H      584.845     257.591    -472.022
  H      583.797     259.557    -473.085
  H      582.268     258.655    -473.285
  H      578.383     250.482    -471.109
  H      577.831     252.035    -471.746
  P      586.730     256.609    -474.690
  C      588.573     256.026    -472.935
  O      588.030     255.795    -474.227
  O      586.971     258.045    -474.018
  O      586.561     256.753    -476.167
  H      587.141     258.707    -474.709
  H      589.432     255.404    -472.792
  H      587.838     255.795    -472.193
  H      588.859     257.053    -472.847

 6  7  8  9  10  11  12  13  14  15  25  28  32  33  34  35 0
 6-311+G(2d,p)
 ****
 36  37  40 0
 6-311+G(2d,p)
 ****
 1  2  3  4  5  16  17  18  19  20  21  22  23  24 0
 3-21G
 ****
 26  27  29  30  31  38  39 41  42  43  44  45  46  47  48 0
 3-21G
 ****


