%nproc=1
%NoSave
%Mem=1900MB
#P OB98/GEN NMR

erre ene a

0 1
  C      397.333     222.284     267.820
  O      397.762     223.202     266.824
  P      396.697     224.301     266.328
  C      395.880     222.816     264.349
  O      395.547     223.511     265.545
  C      394.641     222.155     263.757
  O      394.186     221.090     264.617
  C      393.443     223.083     263.596
  O      393.607     223.944     262.482
  C      392.318     222.066     263.453
  O      392.294     221.539     262.115
  C      392.747     220.975     264.449
  N      388.534     219.907     267.158
  C      388.855     219.674     265.863
  N      389.985     220.007     265.213
  C      390.843     220.638     266.035
  C      390.641     220.963     267.366
  C      389.421     220.565     267.934
  N      389.096     220.806     269.254
  N      391.735     221.635     267.875
  C      392.587     221.705     266.873
  N      392.097     221.105     265.743
  O      397.482     225.064     265.163
  O      396.223     225.238     267.395
  H      393.076     220.959     262.020
  H      397.236     226.010     265.137
  H      388.107     219.150     265.279
  H      393.559     222.169     266.920
  H      392.542     219.965     264.077
  H      391.328     222.488     263.659
  H      393.294     223.681     264.506
  H      394.917     221.720     262.786
  H      396.621     222.043     264.573
  H      388.144     220.621     269.540
  H      389.697     221.424     269.788
  H      396.323     223.526     263.642
  P      393.019     225.430     262.609
  C      391.075     224.840     261.034
  O      391.441     225.242     262.340
  O      393.526     226.098     261.243
  O      393.384     226.149     263.864
  H      393.340     225.538     260.474
  H      389.995     224.702     261.005
  H      391.560     223.893     260.776
  H      391.351     225.610     260.310
  H      398.133     221.614     268.056
  H      396.497     221.726     267.454
  H      397.046     222.821     268.700

 3  4  5  6  7  8  9  10  11  12  22  25  29  30  31  32 0
 6-311+G(2d,p)
 ****
 33  36  37 0
 6-311+G(2d,p)
 ****
 1  2  13  14  15  16  17  18  19  20  21  23  24  26 0
 3-21G
 ****
 27  28  34  35  38  39  40  41  42  43  44  45  46  47  48 0
 3-21G
 ****


