%nproc=1
%NoSave
%Mem=1900MB
#P OB98/GEN NMR

erre ene a

0 1
  C     -642.189     540.645     206.629
  O     -641.779     539.973     205.452
  H     -641.634     541.587     206.707
  H     -641.981     540.043     207.517
  H     -643.258     540.873     206.574
  P     -642.254     538.452     205.247
  C     -640.257     536.851     205.619
  O     -641.330     537.576     206.225
  C     -640.120     535.454     206.236
  O     -640.023     535.557     207.673
  C     -641.317     534.547     205.976
  O     -641.452     534.142     204.636
  C     -641.174     533.500     207.070
  O     -640.313     532.417     206.715
  C     -640.530     534.321     208.220
  N     -641.465     534.556     209.314
  C     -641.932     533.423     209.969
  O     -641.610     532.274     209.654
  N     -642.824     533.641     210.989
  C     -643.319     534.856     211.362
  O     -644.153     534.981     212.260
  C     -642.813     536.017     210.617
  C     -641.926     535.815     209.637
  O     -642.266     537.958     203.828
  O     -643.685     538.405     205.963
  H     -640.350     531.774     207.448
  H     -644.197     537.604     205.676
  H     -643.164     532.830     211.480
  H     -643.192     537.000     210.891
  H     -641.532     536.666     209.073
  H     -639.665     533.784     208.631
  H     -642.140     533.070     207.340
  H     -642.226     535.114     206.217
  H     -639.193     535.000     205.863
  H     -639.332     537.414     205.798
  H     -640.431     536.777     204.539
  P     -642.865     533.837     203.951
  C     -643.352     531.347     204.536
  O     -643.623     532.717     204.825
  O     -642.883     533.708     202.455
  O     -643.693     535.174     204.331
  H     -644.296     535.357     203.585
  H     -643.924     530.724     205.192
  H     -642.309     531.152     204.678
  H     -643.620     531.137     203.522

 6  7  8  9  10  11  12  13  14  15  16  26  31  32  33  34  35 0
 6-311+G(2d,p)
 ****
 36  37 0
 6-311+G(2d,p)
 ****
 1  2  3  4  5  17  18  19  20  21  22  23  24  25 0
 3-21G
 ****
 27  28  29  30  38  39  40  41  42  43  44  45 0
 3-21G
 ****


