%nproc=1
%NoSave
%Mem=1900MB
#P OB98/GEN NMR

erre ene a

0 1
  C       34.968     325.959     -65.136
  O       35.054     324.578     -65.434
  H       35.940     326.419     -65.326
  H       34.708     326.101     -64.081
  H       34.218     326.439     -65.770
  P       33.714     323.716     -65.238
  C       35.049     322.036     -63.771
  O       33.909     322.876     -63.884
  C       35.020     321.307     -62.428
  O       35.085     322.273     -61.351
  C       33.743     320.515     -62.185
  O       33.738     319.274     -62.871
  C       33.772     320.370     -60.671
  O       34.603     319.275     -60.266
  C       34.388     321.700     -60.221
  N       32.531     323.983     -56.050
  C       33.594     323.173     -56.235
  N       34.032     322.616     -57.385
  C       33.261     322.993     -58.418
  C       32.148     323.817     -58.381
  C       31.785     324.325     -57.124
  N       30.684     325.131     -56.925
  N       31.593     323.940     -59.640
  C       32.362     323.211     -60.426
  N       33.385     322.626     -59.730
  O       33.825     322.612     -66.392
  O       32.443     324.493     -65.330
  H       34.172     318.465     -60.597
  H       33.267     322.876     -67.149
  H       34.168     322.932     -55.344
  H       32.218     323.077     -61.490
  H       35.124     321.562     -59.420
  H       32.771     320.191     -60.279
  H       32.866     321.113     -62.466
  H       35.903     320.658     -62.360
  H       35.958     322.643     -63.830
  H       35.045     321.316     -64.598
  H       30.444     325.404     -55.992
  H       30.057     325.299     -57.704
  P       32.319     318.616     -63.209
  C       32.528     316.899     -61.259
  O       31.772     317.938     -61.863
  O       32.688     317.367     -64.139
  O       31.352     319.537     -63.874
  H       31.994     317.243     -64.819
  H       32.027     316.560     -60.377
  H       33.498     317.269     -60.998
  H       32.630     316.086     -61.947

 6  7  8  9  10  11  12  13  14  15  25  28  32  33  34  35 0
 6-311+G(2d,p)
 ****
 36  37  40 0
 6-311+G(2d,p)
 ****
 1  2  3  4  5  16  17  18  19  20  21  22  23  24 0
 3-21G
 ****
 26  27  29  30  31  38  39 41  42  43  44  45  46  47  48 0
 3-21G
 ****


