%nproc=1
%NoSave
%Mem=1900MB
#P OB98/GEN NMR

erre ene a

0 1
  C     -406.909    -405.282    -897.510
  O     -407.491    -404.018    -897.760
  H     -407.678    -406.007    -897.220
  H     -406.421    -405.628    -898.420
  H     -406.158    -405.195    -896.710
  P     -408.353    -403.389    -896.560
  C     -406.405    -402.308    -895.220
  O     -407.546    -402.083    -896.050
  C     -405.815    -400.971    -894.770
  O     -405.310    -400.243    -895.920
  C     -406.801    -400.027    -894.100
  O     -407.034    -400.372    -892.740
  C     -406.045    -398.713    -894.210
  O     -405.052    -398.620    -893.190
  C     -405.364    -398.829    -895.590
  N     -406.068    -394.313    -897.900
  C     -405.288    -394.672    -896.860
  N     -405.171    -395.878    -896.290
  C     -405.932    -396.811    -896.940
  C     -406.776    -396.570    -898.000
  C     -406.847    -395.256    -898.500
  N     -407.643    -394.885    -899.560
  N     -407.396    -397.737    -898.400
  C     -406.944    -398.656    -897.560
  N     -406.065    -398.126    -896.650
  O     -408.166    -404.435    -895.360
  O     -409.804    -403.169    -896.860
  H     -404.514    -397.826    -893.380
  H     -409.001    -404.496    -894.860
  H     -404.678    -393.885    -896.430
  H     -407.208    -399.708    -897.590
  H     -404.322    -398.473    -895.560
  H     -406.694    -397.836    -894.120
  H     -407.737    -399.972    -894.670
  H     -404.969    -401.199    -894.100
  H     -405.648    -402.869    -895.780
  H     -407.497    -393.993    -899.990
  H     -408.209    -395.610    -900.000
  H     -406.703    -402.900    -894.350
  P     -408.402    -399.877    -892.060
  C     -410.089    -401.816    -892.490
  O     -409.177    -401.202    -891.580
  O     -409.271    -399.389    -893.320
  O     -408.238    -398.800    -891.050
  H     -409.922    -398.704    -893.050
  H     -410.523    -402.680    -892.031
  H     -409.566    -402.108    -893.377
  H     -410.862    -401.121    -892.744

 6  7  8  9  10  11  12  13  14  15  25  28  32  33  34  35 0
 6-311+G(2d,p)
 ****
 36  39  40 0
 6-311+G(2d,p)
 ****
 1  2  3  4  5  16  17  18  19  20  21  22  23  24 0
 3-21G
 ****
 26  27  29  30  31  37  38  41  42  43  44  45  46  47  48 0
 3-21G
 ****


