%nproc=1
%NoSave
%Mem=1900MB
#P OB98/GEN NMR

erre ene a

0 1
  C     -740.916    -496.751    -894.460
  O     -740.887    -495.577    -895.240
  H     -741.571    -497.501    -894.910
  H     -739.906    -497.156    -894.390
  H     -741.261    -496.507    -893.450
  P     -742.301    -494.891    -895.540
  C     -741.949    -493.146    -893.640
  O     -742.187    -493.359    -895.040
  C     -741.789    -491.655    -893.360
  O     -740.523    -491.185    -893.880
  C     -742.845    -490.767    -894.000
  O     -744.060    -490.763    -893.270
  C     -742.158    -489.412    -893.920
  O     -742.294    -488.860    -892.610
  C     -740.675    -489.764    -894.180
  N     -739.580    -486.187    -897.670
  C     -739.985    -486.091    -896.390
  N     -740.268    -487.076    -895.540
  C     -740.071    -488.306    -896.100
  C     -739.664    -488.538    -897.400
  C     -739.424    -487.426    -898.220
  N     -739.009    -487.520    -899.540
  N     -739.564    -489.895    -897.640
  C     -739.928    -490.454    -896.490
  N     -740.250    -489.519    -895.540
  O     -743.288    -495.558    -894.460
  O     -742.829    -495.065    -896.930
  H     -743.237    -488.603    -892.500
  H     -744.169    -495.677    -894.870
  H     -740.080    -485.083    -896.000
  H     -739.945    -491.529    -896.310
  H     -740.006    -489.227    -893.500
  H     -742.564    -488.679    -894.630
  H     -743.006    -491.042    -895.050
  H     -741.780    -491.526    -892.270
  H     -741.027    -493.669    -893.350
  H     -738.662    -486.707    -900.000
  H     -738.891    -488.453    -899.920
  H     -742.780    -493.553    -893.070
  P     -745.406    -490.312    -894.040
  C     -745.738    -492.535    -895.360
  O     -746.228    -491.653    -894.350
  O     -744.861    -489.878    -895.490
  O     -746.153    -489.212    -893.370
  H     -745.452    -489.215    -895.900
  H     -746.393    -493.377    -895.446
  H     -744.757    -492.871    -895.095
  H     -745.697    -492.018    -896.296

 6  7  8  9  10  11  12  13  14  15  25  28  32  33  34  35 0
 6-311+G(2d,p)
 ****
 36  39  40 0
 6-311+G(2d,p)
 ****
 1  2  3  4  5  16  17  18  19  20  21  22  23  24 0
 3-21G
 ****
 26  27  29  30  31  37  38  41  42  43  44  45  46  47  48 0
 3-21G
 ****


