%nproc=1
%NoSave
%Mem=1900MB
#P OB98/GEN NMR

erre ene a

0 1
  C      864.254    -350.752     -57.305
  O      864.602    -349.452     -56.859
  H      863.179    -350.909     -57.107
  H      864.820    -351.502     -56.750
  H      864.431    -350.860     -58.374
  P      866.071    -348.909     -57.167
  C      865.606    -346.622     -56.051
  O      866.393    -347.803     -56.049
  C      865.763    -345.888     -54.730
  O      865.182    -346.659     -53.659
  C      867.211    -345.648     -54.326
  O      867.771    -344.577     -55.067
  C      867.051    -345.374     -52.832
  O      866.648    -344.021     -52.611
  C      865.925    -346.363     -52.461
  N      866.447    -347.600     -51.827
  C      867.188    -347.432     -50.676
  O      867.454    -346.334     -50.192
  N      867.663    -348.590     -50.106
  C      867.533    -349.838     -50.614
  O      868.046    -350.841     -50.108
  C      866.753    -349.956     -51.853
  C      866.256    -348.827     -52.409
  O      866.330    -348.477     -58.569
  O      867.030    -350.126     -56.742
  H      866.715    -343.868     -51.644
  H      867.361    -350.571     -57.542
  H      868.212    -348.506     -49.268
  H      866.637    -350.930     -52.295
  H      865.690    -348.895     -53.325
  H      865.234    -345.888     -51.748
  H      867.992    -345.527     -52.285
  H      867.793    -346.567     -54.456
  H      865.204    -344.934     -54.784
  H      864.552    -346.914     -56.182
  H      865.914    -345.990     -56.884
  P      869.370    -344.495     -55.258
  C      869.024    -342.211     -56.396
  O      869.759    -342.936     -55.417
  O      869.939    -345.399     -56.292
  O      869.937    -344.858     -53.793
  H      870.498    -345.649     -53.871
  H      869.362    -341.196     -56.416
  H      867.983    -342.236     -56.151
  H      869.175    -342.656     -57.357

 6  7  8  9  10  11  12  13  14  15  16  26  31  32  33  34  35 0
 6-311+G(2d,p)
 ****
 36  37 0
 6-311+G(2d,p)
 ****
 1  2  3  4  5  17  18  19  20  21  22  23  24  25 0
 3-21G
 ****
 27  28  29  30  38  39  40  41  42  43  44  45 0
 3-21G
 ****


