%nproc=1
%NoSave
%Mem=1900MB
#P OB98/GEN NMR

erre ene a

0 1
  C     -309.235     629.598     420.317
  O     -309.542     629.618     421.695
  H     -309.012     628.568     420.026
  H     -308.353     630.214     420.119
  H     -310.086     629.954     419.727
  P     -309.875     631.019     422.413
  C     -311.186     631.404     424.588
  O     -310.160     630.651     423.957
  C     -311.679     630.706     425.854
  O     -312.279     629.426     425.497
  C     -310.576     630.425     426.883
  O     -311.004     630.820     428.190
  C     -310.407     628.912     426.841
  O     -309.867     628.372     428.037
  C     -311.843     628.481     426.499
  N     -311.906     627.096     426.025
  C     -312.281     626.137     426.977
  O     -312.529     626.484     428.136
  N     -312.290     624.827     426.609
  C     -311.922     624.479     425.412
  N     -311.929     623.153     425.121
  C     -311.500     625.465     424.385
  C     -311.519     626.738     424.752
  O     -310.945     631.818     421.745
  O     -308.471     631.785     422.479
  H     -310.497     628.533     428.765
  H     -308.638     632.754     422.572
  H     -311.196     625.126     423.401
  H     -311.225     627.527     424.077
  H     -312.503     628.579     427.371
  H     -309.739     628.647     426.009
  H     -309.634     630.935     426.650
  H     -312.491     631.307     426.294
  H     -312.223     622.514     425.849
  H     -312.014     631.541     423.868
  H     -311.644     622.771     424.232
  H     -310.781     632.389     424.854
  P     -310.537     632.278     428.679
  C     -311.886     634.295     429.615
  O     -311.707     632.889     429.603
  O     -310.593     633.161     427.349
  O     -309.176     632.290     429.291
  H     -309.683     633.384     427.065
  H     -312.694     634.546     430.270
  H     -312.110     634.634     428.625
  H     -310.989     634.766     429.959

 6  7  8  9  10  11  12  13  14  15  16  26  30  31  32  33  35 0
 6-311+G(2d,p)
 ****
 37  38 0
 6-311+G(2d,p)
 ****
 1  2  3  4  5  17  18  19  20  21  22  23  24  25 0
 3-21G
 ****
 27  28  29  34  36  39  40  41  42  43  44  45  46 0
 3-21G
 ****


