%nproc=1
%NoSave
%Mem=1900MB
#P OB98/GEN NMR

erre ene a

0 1
  C      333.622    -109.046     308.170
  O      333.527    -110.218     308.957
  H      333.768    -109.308     307.119
  H      332.689    -108.480     308.269
  H      334.449    -108.424     308.520
  P      334.784    -111.213     308.924
  C      334.441    -112.746     306.863
  O      335.060    -111.576     307.383
  C      335.140    -113.169     305.569
  O      334.989    -112.104     304.597
  C      336.639    -113.471     305.715
  O      336.920    -114.809     305.289
  C      337.315    -112.508     304.749
  O      338.407    -113.096     304.033
  C      336.187    -112.095     303.814
  N      339.338    -109.392     300.855
  C      339.114    -110.720     300.941
  N      338.186    -111.369     301.670
  C      337.422    -110.496     302.348
  C      337.515    -109.113     302.347
  C      338.545    -108.561     301.570
  N      338.807    -107.206     301.527
  N      336.557    -108.559     303.180
  C      335.925    -109.586     303.706
  N      336.425    -110.782     303.254
  O      334.193    -112.576     309.530
  O      335.981    -110.747     309.687
  H      338.016    -113.650     303.337
  H      334.800    -112.922     310.212
  H      339.774    -111.348     300.344
  H      335.143    -109.526     304.450
  H      336.053    -112.799     302.984
  H      337.699    -111.650     305.313
  H      337.002    -113.321     306.738
  H      334.612    -114.046     305.165
  H      333.389    -112.540     306.648
  H      339.634    -106.906     301.033
  H      338.288    -106.593     302.142
  H      334.496    -113.537     307.611
  P      337.625    -115.776     306.363
  C      340.176    -115.797     305.830
  O      339.117    -115.232     306.597
  O      337.855    -117.130     305.538
  O      336.817    -116.002     307.596
  H      337.871    -117.893     306.144
  H      341.100    -115.331     306.101
  H      339.988    -115.636     304.789
  H      340.236    -116.848     306.024

 6  7  8  9  10  11  12  13  14  15  25  28  32  33  34  35 0
 6-311+G(2d,p)
 ****
 36  39  40 0
 6-311+G(2d,p)
 ****
 1  2  3  4  5  16  17  18  19  20  21  22  23  24 0
 3-21G
 ****
 26  27  29  30  31  37  38  41  42  43  44  45  46  47  48 0
 3-21G
 ****


