%nproc=1
%NoSave
%Mem=1900MB
#P OB98/GEN NMR

erre ene a

0 1
  C      173.174    -186.796    -840.625
  O      173.784    -187.995    -841.074
  P      175.391    -188.044    -841.127
  C      175.762    -189.887    -839.320
  O      175.806    -189.538    -840.708
  C      176.075    -191.366    -839.133
  O      174.967    -192.161    -839.603
  C      177.289    -191.862    -839.895
  O      178.506    -191.554    -839.230
  C      177.051    -193.366    -839.899
  O      177.475    -193.930    -838.656
  C      175.501    -193.448    -840.036
  N      175.022    -196.953    -843.643
  C      175.536    -197.068    -842.364
  N      175.949    -198.290    -841.974
  N      175.626    -196.060    -841.530
  C      175.141    -194.899    -842.032
  C      174.609    -194.675    -843.289
  C      174.567    -195.786    -844.222
  O      174.174    -195.731    -845.382
  N      174.210    -193.363    -843.435
  C      174.458    -192.818    -842.243
  N      175.044    -193.709    -841.381
  O      175.812    -187.182    -839.843
  O      175.994    -187.515    -842.377
  H      176.852    -193.625    -837.970
  H      176.702    -186.791    -839.971
  H      174.959    -197.773    -844.231
  H      174.213    -191.796    -841.989
  H      175.080    -194.201    -839.374
  H      177.588    -193.888    -840.710
  H      175.776    -199.129    -842.522
  H      177.303    -191.478    -840.929
  H      176.277    -198.402    -841.036
  H      176.192    -191.551    -838.056
  H      174.757    -189.677    -838.929
  H      176.489    -189.256    -838.798
  P      179.771    -191.159    -840.148
  C      180.306    -188.735    -839.391
  O      180.613    -190.104    -839.282
  O      179.096    -190.283    -841.306
  O      180.518    -192.330    -840.698
  H      179.643    -190.326    -842.124
  H      179.234    -188.562    -839.516
  H      180.836    -188.308    -840.248
  H      180.637    -188.228    -838.490
  H      172.110    -186.909    -840.643
  H      173.458    -185.989    -841.268
  H      173.494    -186.586    -839.626

 3  4  5  6  7  8  9  10  11  12  23  26  30  31  33  0
 6-311+G(2d,p)
 ****
 35  36  37  38 0
 6-311+G(2d,p)
 ****
 1  2  13  14  15  16  17  18  19  20  21  22  24  25  27  28  29 0
 3-21G
 ****
 32  34  39  40  41  42  43  44  45  46  47  48  49 0
 3-21G
 ****


