%nproc=1
%NoSave
%Mem=1900MB
#P OB98/GEN NMR

erre ene a

0 1
  C     -960.977    -964.995    -899.340
  O     -961.587    -965.521    -898.180
  H     -960.098    -964.420    -899.050
  H     -961.666    -964.341    -899.890
  H     -960.649    -965.816    -900.000
  P     -962.969    -966.323    -898.340
  C     -962.270    -968.585    -897.320
  O     -962.586    -967.866    -898.500
  C     -960.744    -968.761    -897.180
  O     -960.121    -967.453    -897.080
  C     -960.318    -969.568    -895.930
  O     -959.107    -970.242    -896.260
  C     -960.071    -968.453    -894.930
  O     -959.359    -968.910    -893.810
  C     -959.372    -967.424    -895.840
  N     -959.353    -966.098    -895.250
  C     -958.155    -965.390    -895.360
  O     -957.191    -965.909    -895.940
  N     -958.062    -964.133    -894.820
  C     -959.084    -963.653    -894.140
  N     -958.923    -962.407    -893.620
  C     -960.353    -964.385    -893.940
  C     -960.419    -965.598    -894.520
  O     -963.909    -965.794    -899.370
  O     -963.621    -966.255    -896.880
  H     -958.546    -969.382    -894.090
  H     -964.356    -965.606    -896.870
  H     -961.141    -963.955    -893.370
  H     -961.311    -966.214    -894.420
  H     -958.352    -967.724    -896.060
  H     -961.021    -968.046    -894.550
  H     -961.086    -970.285    -895.610
  H     -960.368    -969.233    -898.100
  H     -958.042    -961.951    -893.760
  H     -962.761    -969.571    -897.380
  H     -959.633    -961.950    -893.060
  H     -962.653    -968.054    -896.440
  P     -959.050    -971.487    -897.280
  C     -956.953    -970.884    -898.660
  O     -958.384    -971.005    -898.650
  O     -960.354    -972.190    -897.450
  O     -957.953    -972.479    -896.650
  H     -958.177    -973.390    -896.890
  H     -956.630    -970.556    -899.626
  H     -956.513    -971.834    -898.440
  H     -956.650    -970.171    -897.922

 6  7  8  9  10  11  12  13  14  15  16  26  30  31  32  33  35 0
 6-311+G(2d,p)
 ****
 37  38 0
 6-311+G(2d,p)
 ****
 1  2  3  4  5  17  18  19  20  21  22  23  24  25 0
 3-21G
 ****
 27  28  29  34  36  39  40  41  42  43  44  45  46 0
 3-21G
 ****


