%nproc=1
%NoSave
%Mem=1900MB
#P OB98/GEN NMR

erre ene a

0 1
  C       55.306    -389.901    -136.716
  O       54.428    -390.991    -136.502
  P       53.771    -391.219    -135.060
  C       51.480    -390.210    -135.771
  O       52.592    -390.142    -134.907
  C       50.212    -389.687    -135.085
  O       49.225    -389.422    -136.111
  C       49.554    -390.670    -134.121
  O       48.669    -389.941    -133.262
  C       48.747    -391.536    -135.061
  O       47.703    -392.233    -134.390
  C       48.283    -390.522    -136.138
  N       48.246    -391.134    -137.476
  C       47.231    -392.050    -137.721
  O       46.344    -392.305    -136.905
  N       47.320    -392.738    -138.905
  C       48.328    -392.618    -139.815
  O       48.553    -393.437    -140.697
  C       49.227    -391.472    -139.613
  C       49.164    -390.809    -138.458
  O       54.905    -390.688    -134.064
  O       53.384    -392.627    -134.758
  H       47.044    -391.558    -134.103
  H       55.441    -391.431    -133.737
  H       46.668    -393.504    -139.018
  H       49.949    -391.249    -140.389
  H       49.851    -389.989    -138.262
  H       47.283    -390.131    -135.917
  H       49.408    -392.287    -135.513
  H       50.258    -391.257    -133.529
  H       50.435    -388.738    -134.575
  H       51.340    -391.241    -136.101
  H       51.666    -389.616    -136.677
  P       48.808    -390.168    -131.679
  C       51.192    -389.235    -131.902
  O       50.378    -390.266    -131.374
  O       47.970    -391.259    -131.100
  O       48.417    -388.734    -131.077
  H       48.179    -388.828    -130.135
  H       52.057    -389.103    -131.251
  H       50.646    -388.287    -131.971
  H       51.536    -389.524    -132.900
  H       55.644    -389.909    -137.731
  H       56.147    -389.986    -136.060
  H       54.791    -388.984    -136.519

 3  4  5  6  7  8  9  10  11  12  13  23  28  29  30  31  32 0
 6-311+G(2d,p)
 ****
 33  34 0
 6-311+G(2d,p)
 ****
 1  2  14  15  16  17  18  19  20  21  22  24  25  26  27 0
 3-21G
 ****
 35  36  37  38  39  40  41  42  43  44  45 0
 3-21G
 ****


