%nproc=1
%NoSave
%Mem=1900MB
#P OB98/GEN NMR

erre ene a

0 1
  C       75.964     145.782    -111.901
  O       76.977     144.811    -112.063
  H       75.204     145.382    -111.224
  H       75.494     146.001    -112.862
  H       76.370     146.699    -111.468
  P       78.300     145.205    -112.877
  C       79.890     144.681    -110.918
  O       79.387     145.678    -111.800
  C       81.401     144.556    -111.084
  O       82.048     145.772    -110.647
  C       82.022     143.443    -110.249
  O       81.770     142.170    -110.810
  C       83.479     143.870    -110.244
  O       84.143     143.461    -111.447
  C       83.367     145.409    -110.180
  N       83.609     145.921    -108.831
  C       84.927     146.240    -108.524
  O       85.858     146.123    -109.317
  N       85.155     146.648    -107.236
  C       84.240     146.628    -106.223
  O       84.543     146.762    -105.042
  C       82.854     146.343    -106.620
  C       82.607     145.994    -107.884
  O       78.098     146.135    -114.026
  O       78.874     143.791    -113.365
  H       78.651     143.662    -114.307
  H       84.921     144.049    -111.535
  H       86.117     146.841    -106.993
  H       82.087     146.388    -105.858
  H       81.598     145.745    -108.195
  H       84.086     145.874    -110.865
  H       84.022     143.437    -109.402
  H       81.635     143.489    -109.225
  H       81.623     144.416    -112.149
  H       79.416     143.724    -111.164
  H       79.632     144.952    -109.889
  P       81.609     140.888    -109.863
  C       79.202     140.160    -110.389
  O       80.068     140.768    -109.437
  O       82.580     140.806    -108.733
  O       81.796     139.646    -110.859
  H       82.450     139.031    -110.475
  H       78.206     140.134    -110.000
  H       79.534     139.162    -110.587
  H       79.216     140.727    -111.297

 6  7  8  9  10  11  12  13  14  15  16  27  31  32  33  34  35 0
 6-311+G(2d,p)
 ****
 36  37 0
 6-311+G(2d,p)
 ****
 1  2  3  4  5  17  18  19  20  21  22  23  24  25 0
 3-21G
 ****
 26  28  29  30  38  39  40  41  42  43  44  45 0
 3-21G
 ****


