%nproc=1
%NoSave
%Mem=1900MB
#P OB98/GEN NMR

erre ene a

0 1
  C      434.504     455.119     699.849
  O      435.513     454.314     700.464
  P      435.581     452.759     700.079
  C      436.963     452.604     697.900
  O      436.973     452.480     699.321
  C      438.195     451.912     697.288
  O      438.032     451.848     695.847
  C      439.525     452.641     697.523
  O      440.264     452.334     698.704
  C      440.353     452.134     696.338
  O      440.926     450.852     696.664
  C      439.321     451.975     695.228
  N      441.482     453.923     691.013
  C      441.707     452.776     691.698
  N      441.087     452.337     692.815
  C      440.144     453.201     693.202
  C      439.803     454.406     692.605
  C      440.525     454.766     691.464
  N      440.307     455.937     690.771
  N      438.785     455.027     693.311
  C      438.529     454.218     694.320
  N      439.313     453.094     694.294
  O      434.370     452.189     699.419
  O      435.839     452.062     701.504
  H      441.709     451.035     697.224
  H      435.338     451.220     701.538
  H      442.488     452.135     691.298
  H      437.792     454.404     695.087
  H      439.496     451.067     694.630
  H      441.194     452.798     696.106
  H      439.391     453.735     697.446
  H      438.258     450.890     697.676
  H      436.958     453.664     697.626
  H      440.900     456.147     689.987
  H      439.635     456.609     691.123
  H      436.025     452.171     697.538
  P      440.654     453.471     699.764
  C      439.178     453.176     701.890
  O      440.359     452.843     701.205
  O      440.029     454.801     699.519
  O      442.255     453.474     699.693
  H      442.671     452.671     700.044
  H      439.055     452.489     702.743
  H      438.308     453.082     701.241
  H      439.249     454.195     702.274
  H      434.586     456.125     700.203
  H      433.538     454.731     700.097
  H      434.633     455.103     698.787

 3  4  5  6  7  8  9  10  11  12  22  25  29  30  31  32 0
 6-311+G(2d,p)
 ****
 33  36  37 0
 6-311+G(2d,p)
 ****
 1  2  13  14  15  16  17  18  19  20  21  23  24  26 0
 3-21G
 ****
 27  28  34  35  38  39  40  41  42  43  44  45  46  47  48 0
 3-21G
 ****


