%nproc=1
%NoSave
%Mem=1900MB
#P OB98/GEN NMR

erre ene a

0 1
  C      181.766    -112.601      31.503
  O      183.078    -112.614      32.027
  H      181.456    -113.632      31.309
  H      181.741    -112.046      30.561
  H      181.066    -112.155      32.215
  P      183.700    -111.247      32.588
  C      185.387    -110.881      30.669
  O      184.209    -110.413      31.318
  C      186.432    -109.770      30.620
  O      185.968    -108.688      29.785
  C      186.738    -109.144      31.975
  O      187.562    -109.998      32.751
  C      187.393    -107.839      31.543
  O      188.766    -108.050      31.182
  C      186.545    -107.467      30.302
  N      185.505    -106.479      30.593
  C      185.852    -105.144      30.408
  O      186.976    -104.783      30.061
  N      184.862    -104.230      30.656
  C      183.617    -104.509      31.141
  O      182.780    -103.647      31.398
  C      183.318    -105.933      31.348
  C      184.258    -106.838      31.070
  O      184.702    -111.392      33.687
  O      182.414    -110.420      33.068
  H      189.125    -107.179      30.926
  H      182.320    -110.492      34.038
  H      185.099    -103.258      30.540
  H      182.341    -106.194      31.738
  H      184.059    -107.892      31.223
  H      187.187    -107.065      29.511
  H      187.386    -107.085      32.333
  H      185.807    -108.912      32.509
  H      187.343    -110.180      30.163
  H      185.128    -111.187      29.647
  H      185.769    -111.751      31.214
  P      187.536    -109.929      34.349
  C      189.336    -108.120      34.566
  O      187.967    -108.444      34.778
  O      188.281    -111.018      35.046
  O      185.975    -109.974      34.714
  H      185.745    -110.853      35.073
  H      189.518    -107.114      34.883
  H      189.568    -108.213      33.526
  H      189.952    -108.789      35.130

 6  7  8  9  10  11  12  13  14  15  16  26  31  32  33  34  35 0
 6-311+G(2d,p)
 ****
 36  37 0
 6-311+G(2d,p)
 ****
 1  2  3  4  5  17  18  19  20  21  22  23  24  25 0
 3-21G
 ****
 27  28  29  30  38  39  40  41  42  43  44  45 0
 3-21G
 ****


