%nproc=1
%NoSave
%Mem=1900MB
#P OB98/GEN NMR

erre ene a

0 1
  C      508.143     332.839     624.826
  O      508.110     332.427     623.472
  H      509.134     332.632     625.232
  H      507.398     332.288     625.408
  H      507.946     333.916     624.891
  P      506.695     332.547     622.719
  C      506.112     330.123     623.486
  O      505.762     331.493     623.511
  C      504.869     329.254     623.732
  O      504.515     329.275     625.125
  C      503.618     329.729     622.988
  O      503.616     329.378     621.621
  C      502.562     328.974     623.768
  O      502.580     327.578     623.396
  C      503.070     329.173     625.218
  N      502.495     330.361     625.851
  C      501.108     330.401     625.974
  O      500.403     329.487     625.535
  N      500.515     331.511     626.540
  C      501.260     332.488     626.989
  N      500.628     333.559     627.533
  C      502.730     332.472     626.898
  C      503.277     331.393     626.326
  O      506.954     331.798     621.324
  O      506.131     333.916     622.595
  H      501.965     327.126     623.998
  H      506.100     331.684     620.843
  H      503.310     333.315     627.270
  H      504.349     331.314     626.242
  H      502.828     328.298     625.838
  H      501.547     329.332     623.589
  H      503.456     330.805     623.116
  H      505.129     328.218     623.472
  H      499.609     333.556     627.527
  H      506.855     329.943     624.283
  H      501.104     334.412     627.762
  H      506.556     329.849     622.512
  P      502.883     330.373     620.600
  C      500.739     328.915     620.919
  O      501.306     330.228     620.851
  O      503.098     329.680     619.170
  O      503.396     331.778     620.619
  H      503.193     330.346     618.472
  H      499.685     328.990     621.090
  H      501.193     328.372     621.721
  H      500.915     328.402     619.997

 6  7  8  9  10  11  12  13  14  15  16  26  30  31  32  33  35 0
 6-311+G(2d,p)
 ****
 37  38 0
 6-311+G(2d,p)
 ****
 1  2  3  4  5  17  18  19  20  21  22  23  24  25 0
 3-21G
 ****
 27  28  29  34  36  39  40  41  42  43  44  45  46 0
 3-21G
 ****


