%nproc=1
%NoSave
%Mem=1900MB
#P OB98/GEN NMR

erre ene a

0 1
  C      151.104      86.392    -309.166
  O      149.950      86.939    -308.558
  H      151.934      87.090    -309.034
  H      150.936      86.241    -310.235
  H      151.365      85.442    -308.689
  P      148.603      86.076    -308.671
  C      147.958      87.343    -310.836
  O      148.250      86.087    -310.236
  C      147.887      87.210    -312.353
  O      149.157      86.782    -312.877
  C      146.861      86.198    -312.850
  O      145.569      86.786    -312.901
  C      147.394      85.903    -314.244
  O      146.979      86.946    -315.150
  C      148.917      85.955    -314.045
  N      152.276      82.583    -315.967
  C      151.720      83.694    -316.497
  N      150.794      84.512    -315.952
  C      150.453      84.092    -314.722
  C      150.933      82.975    -314.054
  C      151.893      82.200    -314.725
  N      152.458      81.068    -314.184
  N      150.348      82.855    -312.810
  C      149.572      83.915    -312.706
  N      149.570      84.674    -313.851
  O      147.501      86.472    -307.745
  O      149.170      84.594    -308.457
  H      146.004      86.969    -315.123
  H      150.015      84.480    -308.927
  H      152.060      83.960    -317.493
  H      149.008      84.189    -311.821
  H      149.422      86.436    -314.895
  H      147.015      84.962    -314.645
  H      146.877      85.277    -312.257
  H      147.684      88.207    -312.773
  H      148.724      88.080    -310.565
  H      152.987      80.473    -314.804
  H      152.076      80.717    -313.317
  H      146.997      87.686    -310.439
  P      144.323      86.115    -312.146
  C      143.463      84.844    -314.211
  O      144.060      84.738    -312.926
  O      143.140      87.006    -311.990
  O      144.925      85.629    -310.746
  H      144.201      85.449    -310.117
  H      143.339      83.867    -314.628
  H      144.093      85.427    -314.850
  H      142.508      85.318    -314.123

 6  7  8  9  10  11  12  13  14  15  25  28  32  33  34  35 0
 6-311+G(2d,p)
 ****
 36  39  40 0
 6-311+G(2d,p)
 ****
 1  2  3  4  5  16  17  18  19  20  21  22  23  24 0
 3-21G
 ****
 26  27  29  30  31  37  38  41  42  43  44  45  46  47 0
 3-21G
 ****
 48 0
 3-21G
 ****


