%nproc=1
%NoSave
%Mem=1900MB
#P OB98/GEN NMR

erre ene a

0 1
  C     -318.018    -294.328     486.990
  O     -316.892    -295.077     486.543
  P     -316.472    -295.266     485.018
  C     -314.011    -294.371     485.279
  O     -314.885    -295.449     484.938
  C     -312.546    -294.833     485.296
  O     -312.318    -295.625     486.500
  C     -312.195    -295.722     484.085
  O     -310.926    -295.433     483.508
  C     -312.406    -297.122     484.625
  O     -311.750    -298.134     483.876
  C     -311.962    -296.981     486.083
  N     -312.408    -301.904     487.359
  C     -311.795    -301.333     486.257
  N     -311.235    -302.189     485.368
  N     -311.742    -300.049     486.045
  C     -312.411    -299.317     486.969
  C     -313.072    -299.762     488.081
  C     -313.075    -301.187     488.347
  O     -313.590    -301.737     489.312
  N     -313.620    -298.717     488.793
  C     -313.311    -297.646     488.090
  N     -312.564    -297.964     486.974
  O     -317.093    -294.328     484.039
  O     -317.010    -296.750     484.657
  H     -311.892    -298.977     484.329
  H     -317.254    -296.736     483.710
  H     -312.394    -302.909     487.491
  H     -313.584    -296.629     488.353
  H     -310.885    -297.085     486.202
  H     -313.482    -297.350     484.582
  H     -311.344    -303.192     485.424
  H     -312.895    -295.548     483.258
  H     -310.983    -301.780     484.475
  H     -311.891    -293.948     485.335
  H     -314.312    -294.050     486.290
  H     -314.161    -293.524     484.604
  P     -310.601    -294.821     482.071
  C     -308.336    -293.799     482.734
  O     -309.012    -294.727     481.901
  O     -311.028    -293.286     482.173
  O     -311.310    -295.480     480.931
  H     -311.744    -293.095     481.514
  H     -307.330    -293.647     482.343
  H     -308.271    -294.184     483.747
  H     -308.862    -292.839     482.732
  H     -318.069    -294.364     488.058
  H     -318.912    -294.746     486.576
  H     -317.919    -293.311     486.672

 3  4  5  6  7  8  9  10  11  12  23  26  30  31 0
 6-311+G(2d,p)
 ****
 33  35  36  37  38 0
 6-311+G(2d,p)
 ****
 1  2  13  14  15  16  17  18  19  20  21  22  24  25 0
 3-21G
 ****
 27  28  29  32  34  39  40  41  42  43  44  45  46  47  48  49 0
 3-21G
 ****


