%nproc=1
%NoSave
%Mem=1900MB
#P OB98/GEN NMR

erre ene a

0 1
  C      -82.175     -10.170     170.973
  O      -80.964      -9.517     170.654
  P      -79.646      -9.810     171.512
  C      -79.785      -7.369     172.306
  O      -79.577      -8.727     172.691
  C      -80.531      -6.617     173.404
  O      -81.849      -7.176     173.591
  C      -79.860      -6.683     174.771
  O      -78.746      -5.811     174.828
  C      -81.018      -6.303     175.687
  O      -81.181      -4.877     175.733
  C      -82.211      -6.959     174.974
  N      -85.460      -9.141     178.246
  C      -85.200      -7.846     177.964
  N      -84.290      -7.341     177.105
  C      -83.590      -8.332     176.523
  C      -83.719      -9.696     176.740
  C      -84.726     -10.099     177.633
  N      -85.043     -11.417     177.882
  N      -82.798     -10.393     175.978
  C      -82.123      -9.465     175.329
  N      -82.611      -8.213     175.577
  O      -78.390      -9.966     170.723
  O      -79.995     -11.165     172.291
  H      -80.328      -4.495     176.011
  H      -79.358     -11.859     172.037
  H      -85.810      -7.119     178.490
  H      -81.294      -9.652     174.659
  H      -83.092      -6.305     174.972
  H      -80.871      -6.648     176.714
  H      -79.555      -7.714     174.986
  H      -80.650      -5.571     173.080
  H      -80.371      -7.360     171.383
  H      -85.874     -11.592     178.425
  H      -84.726     -12.122     177.222
  H      -78.816      -6.896     172.113
  P      -77.282      -6.406     175.069
  C      -76.683      -4.369     176.506
  O      -76.742      -5.779     176.442
  O      -76.344      -6.308     173.911
  O      -77.559      -7.936     175.463
  H      -76.819      -8.492     175.150
  H      -75.804      -4.012     175.961
  H      -76.600      -4.066     177.552
  H      -77.585      -3.920     176.079
  H      -82.941      -9.852     170.297
  H      -82.459      -9.925     171.975
  H      -82.042     -11.228     170.889

 3  4  5  6  7  8  9  10  11  12  22  25  29  30  31  32 0
 6-311+G(2d,p)
 ****
 33  36  37 0
 6-311+G(2d,p)
 ****
 1  2  13  14  15  16  17  18  19  20  21  23  24  26 0
 3-21G
 ****
 27  28  34  35  38  39  40  41  42  43  44  45  46  47  48 0
 3-21G
 ****


