%nproc=1
%NoSave
%Mem=1900MB
#P OB98/GEN NMR

erre ene a

0 1
  C      599.961     328.167     885.140
  O      600.785     329.326     885.340
  P      602.254     329.253     886.010
  C      601.537     330.050     888.359
  O      602.330     330.314     887.204
  C      601.934     330.940     889.540
  O      603.225     330.537     890.062
  C      602.072     332.411     889.215
  O      600.798     333.033     889.077
  C      602.911     332.898     890.391
  O      602.076     333.155     891.536
  C      603.842     331.697     890.644
  N      605.176     331.916     890.105
  C      606.138     332.371     891.015
  O      605.831     332.627     892.180
  N      607.439     332.554     890.561
  C      607.714     332.368     889.302
  N      608.995     332.550     888.930
  C      606.701     331.970     888.307
  C      605.478     331.758     888.774
  O      603.371     329.357     885.011
  O      602.299     327.836     886.756
  H      602.670     333.289     892.302
  H      603.216     327.506     886.741
  H      606.969     331.852     887.253
  H      604.666     331.464     888.100
  H      603.924     331.503     891.721
  H      603.444     333.834     890.182
  H      602.643     332.538     888.286
  H      601.184     330.783     890.334
  H      609.674     332.816     889.633
  H      601.665     328.991     888.635
  H      609.319     332.427     887.971
  H      600.489     330.209     888.095
  P      600.087     333.070     887.648
  C      601.378     335.183     886.934
  O      600.099     334.601     887.140
  O      598.764     332.391     887.553
  O      601.164     332.382     886.672
  H      600.687     331.925     885.943
  H      601.247     336.042     886.258
  H      602.077     334.478     886.521
  H      601.753     335.554     887.908
  H      599.039     328.460     884.683
  H      599.761     327.705     886.084
  H      600.470     327.473     884.504

 3  4  5  6  7  8  9  10  11  12  13  23  27  28  29  30  32 0
 6-311+G(2d,p)
 ****
 34  35 0
 6-311+G(2d,p)
 ****
 1  2  14  15  16  17  18  19  20  21  22  24  25  26 0
 3-21G
 ****
 31  33  36  37  38  39  40  41  42  43  44  45  46 0
 3-21G
 ****


