%nproc=1
%NoSave
%Mem=1900MB
#P OB98/GEN NMR

erre ene a

0 1
  C     -280.749     378.544    -228.335
  O     -281.686     379.610    -228.164
  P     -282.876     379.366    -227.114
  C     -284.688     380.645    -228.463
  O     -283.927     380.568    -227.265
  C     -285.353     382.017    -228.572
  O     -286.032     382.384    -227.346
  C     -284.367     383.148    -228.836
  O     -283.930     383.140    -230.183
  C     -285.210     384.361    -228.454
  O     -286.114     384.702    -229.520
  C     -286.007     383.831    -227.251
  N     -286.508     386.950    -223.227
  C     -287.238     386.805    -224.352
  N     -287.035     385.951    -225.378
  C     -285.958     385.182    -225.154
  C     -285.119     385.212    -224.052
  C     -285.426     386.152    -223.053
  N     -284.673     386.303    -221.911
  N     -284.113     384.273    -224.180
  C     -284.330     383.704    -225.350
  N     -285.439     384.214    -225.970
  O     -282.180     379.639    -225.701
  O     -283.461     377.994    -227.186
  H     -286.667     385.443    -229.202
  H     -282.065     378.802    -225.215
  H     -288.094     387.464    -224.444
  H     -283.714     382.927    -225.785
  H     -287.049     384.173    -227.255
  H     -284.613     385.251    -228.235
  H     -283.505     383.065    -228.165
  H     -286.095     381.976    -229.380
  H     -285.453     379.865    -228.477
  H     -284.914     387.053    -221.281
  H     -283.815     385.779    -221.813
  H     -284.028     380.460    -229.312
  P     -282.414     383.575    -230.479
  C     -282.810     385.247    -232.393
  O     -282.422     383.930    -232.050
  O     -281.655     382.173    -230.437
  O     -281.878     384.638    -229.579
  H     -282.138     381.487    -230.936
  H     -282.741     385.357    -233.478
  H     -282.146     385.974    -231.911
  H     -283.843     385.420    -232.086
  H     -280.012     378.830    -229.056
  H     -281.262     377.670    -228.677
  H     -280.272     378.335    -227.400

 3  4  5  6  7  8  9  10  11  12  22  25  29  30  31  32 0
 6-311+G(2d,p)
 ****
 33  36  37 0
 6-311+G(2d,p)
 ****
 1  2  13  14  15  16  17  18  19  20  21  23  24  26 0
 3-21G
 ****
 27  28  34  35  38  39  40  41  42  43  44  45  46  47  48 0
 3-21G
 ****


