%nproc=1
%NoSave
%Mem=1900MB
#P OB98/GEN NMR

erre ene a

0 1
  C     -473.639    1254.765    -550.598
  O     -472.585    1255.625    -550.962
  H     -474.187    1255.224    -549.769
  H     -473.243    1253.804    -550.263
  H     -474.330    1254.615    -551.438
  P     -471.769    1255.231    -552.306
  C     -471.497    1257.760    -552.872
  O     -470.845    1256.504    -552.657
  C     -470.553    1258.900    -552.491
  O     -470.293    1258.881    -551.074
  C     -469.189    1258.853    -553.196
  O     -469.259    1259.414    -554.489
  C     -468.377    1259.727    -552.260
  O     -468.682    1261.114    -552.503
  C     -468.895    1259.310    -550.883
  N     -464.901    1258.103    -548.005
  C     -465.331    1259.349    -548.449
  N     -464.614    1260.410    -548.042
  N     -466.407    1259.521    -549.173
  C     -467.023    1258.359    -549.481
  C     -466.679    1257.067    -549.145
  C     -465.498    1256.904    -548.295
  O     -465.072    1255.820    -547.884
  N     -467.544    1256.150    -549.628
  C     -468.438    1256.863    -550.322
  N     -468.146    1258.219    -550.273
  O     -472.898    1255.255    -553.433
  O     -471.066    1253.917    -552.264
  H     -468.182    1261.633    -551.866
  H     -472.709    1254.563    -554.097
  H     -464.066    1258.026    -547.430
  H     -469.282    1256.474    -550.864
  H     -468.898    1260.135    -550.157
  H     -467.292    1259.608    -552.395
  H     -463.754    1260.341    -547.514
  H     -468.783    1257.835    -553.204
  H     -464.951    1261.325    -548.309
  H     -471.067    1259.844    -552.714
  H     -472.380    1257.802    -552.240
  H     -471.781    1257.841    -553.923
  P     -468.979    1258.436    -555.735
  C     -470.338    1259.543    -557.649
  O     -469.073    1259.350    -557.042
  O     -470.331    1257.564    -555.805
  O     -467.793    1257.568    -555.626
  H     -470.161    1256.723    -556.263
  H     -470.230    1260.174    -558.506
  H     -471.003    1260.003    -556.949
  H     -470.737    1258.597    -557.951

 6  7  8  9  10  11  12  13  14  15  26  29  33  34 0
 6-311+G(2d,p)
 ****
 36  38  39  40  41 0
 6-311+G(2d,p)
 ****
 1  2  3  4  5  16  17  18  19  20  21  22  23  24  25 0
 3-21G
 ****
 27  28  30  31  32  35  37  42  43  44  45  46  47 0
 3-21G
 ****
 48  49 0
 3-21G
 ****


