%nproc=1
%NoSave
%Mem=1900MB
#P OB98/GEN NMR

erre ene a

0 1
  C      313.272     295.078      40.779
  O      312.176     295.926      40.479
  P      310.702     295.625      41.046
  C      311.230     297.222      43.008
  O      310.775     295.942      42.612
  C      310.552     297.656      44.309
  O      311.094     298.939      44.712
  C      309.029     297.805      44.206
  O      308.475     297.403      45.466
  C      308.851     299.291      43.995
  O      307.554     299.748      44.357
  C      309.984     299.847      44.865
  N      310.363     301.211      44.490
  C      310.479     302.152      45.514
  O      310.245     301.852      46.682
  N      310.862     303.427      45.179
  C      311.025     303.752      43.941
  N      311.462     305.014      43.671
  C      310.809     302.817      42.823
  C      310.504     301.569      43.170
  O      310.168     294.274      40.703
  O      309.815     296.836      40.500
  H      307.559     300.723      44.357
  H      309.470     296.682      39.586
  H      310.928     303.142      41.801
  H      310.348     300.809      42.419
  H      309.701     299.815      45.922
  H      309.005     299.536      42.940
  H      308.594     297.192      43.412
  H      310.815     296.930      45.089
  H      311.771     305.570      44.463
  H      310.974     297.941      42.220
  H      311.915     305.236      42.793
  H      312.322     297.209      43.117
  P      307.019     296.734      45.479
  C      308.183     294.417      45.575
  O      307.162     295.211      45.005
  O      306.338     297.416      44.194
  O      306.179     296.992      46.692
  H      305.369     297.430      44.311
  H      308.126     293.414      45.145
  H      308.045     294.340      46.655
  H      309.164     294.840      45.354
  H      314.155     295.455      40.307
  H      313.069     294.091      40.418
  H      313.420     295.047      41.838

 3  4  5  6  7  8  9  10  11  12  13  23  27  28  29  30  32 0
 6-311+G(2d,p)
 ****
 34  35 0
 6-311+G(2d,p)
 ****
 1  2  14  15  16  17  18  19  20  21  22  24  25  26 0
 3-21G
 ****
 31  33  36  37  38  39  40  41  42  43  44  45  46 0
 3-21G
 ****


