%nproc=1
%NoSave
%Mem=1900MB
#P OB98/GEN NMR

erre ene a

0 1
  C      396.602    -270.395     -34.673
  O      396.466    -271.653     -35.313
  P      396.942    -271.866     -36.823
  C      397.734    -274.361     -36.610
  O      396.844    -273.418     -37.170
  C      397.452    -275.738     -37.231
  O      396.189    -276.246     -36.754
  C      397.394    -275.670     -38.752
  O      398.654    -275.993     -39.317
  C      396.303    -276.671     -39.084
  O      396.828    -278.009     -39.083
  C      395.324    -276.473     -37.901
  N      394.356    -275.360     -37.977
  C      393.569    -275.215     -39.115
  O      393.601    -275.983     -40.076
  N      392.744    -274.118     -39.128
  C      392.598    -273.210     -38.112
  O      392.053    -272.123     -38.231
  C      393.247    -273.574     -36.848
  C      394.099    -274.604     -36.846
  O      398.519    -271.604     -36.738
  O      396.283    -270.988     -37.835
  H      396.070    -278.620     -39.155
  H      398.734    -270.696     -37.027
  H      392.269    -273.925     -40.007
  H      393.053    -272.968     -35.979
  H      394.619    -274.868     -35.928
  H      394.750    -277.389     -37.713
  H      395.912    -276.505     -40.082
  H      397.064    -274.676     -39.073
  H      398.234    -276.438     -36.908
  H      397.609    -274.399     -35.526
  H      398.768    -274.063     -36.813
  P      399.318    -275.011     -40.394
  C      401.776    -274.780     -39.699
  O      400.844    -275.475     -40.509
  O      399.109    -273.554     -40.144
  O      398.655    -275.482     -41.776
  H      397.900    -274.890     -41.996
  H      402.732    -275.310     -39.731
  H      401.425    -274.737     -38.663
  H      401.909    -273.766     -40.084
  H      396.227    -270.461     -33.673
  H      396.047    -269.658     -35.214
  H      397.635    -270.117     -34.649

 3  4  5  6  7  8  9  10  11  12  13  23  28  29  30  31  32 0
 6-311+G(2d,p)
 ****
 33  34 0
 6-311+G(2d,p)
 ****
 1  2  14  15  16  17  18  19  20  21  22  24  25  26  27 0
 3-21G
 ****
 35  36  37  38  39  40  41  42  43  44  45 0
 3-21G
 ****


