%nproc=1
%NoSave
%Mem=1900MB
#P OB98/GEN NMR

erre ene a

0 1
  C     -263.830    -799.296     538.385
  O     -264.179    -797.937     538.114
  P     -263.136    -796.755     537.847
  C     -263.940    -794.567     539.045
  O     -263.937    -795.360     537.869
  C     -265.100    -793.541     539.084
  O     -265.044    -792.704     537.904
  C     -266.444    -794.294     539.018
  O     -267.022    -794.815     540.210
  C     -267.359    -793.344     538.250
  O     -268.134    -792.495     539.114
  C     -266.393    -792.503     537.421
  N     -269.262    -792.722     533.176
  C     -269.642    -792.418     534.463
  N     -270.958    -792.193     534.679
  N     -268.794    -792.382     535.467
  C     -267.516    -792.701     535.137
  C     -267.030    -793.033     533.891
  C     -267.958    -793.034     532.786
  O     -267.666    -793.272     531.614
  N     -265.695    -793.315     533.938
  C     -265.380    -793.190     535.225
  N     -266.463    -792.814     535.996
  O     -262.186    -796.980     536.718
  O     -262.270    -796.725     539.218
  H     -267.525    -791.885     539.557
  H     -261.368    -796.445     538.961
  H     -269.941    -792.729     532.438
  H     -264.395    -793.366     535.638
  H     -266.601    -791.420     537.518
  H     -268.091    -793.899     537.656
  H     -271.665    -792.342     533.978
  H     -266.321    -795.163     538.358
  H     -271.271    -792.195     535.660
  H     -265.020    -792.876     539.950
  H     -262.972    -794.033     539.092
  H     -263.978    -795.197     539.930
  P     -267.051    -796.352     540.638
  C     -269.558    -796.606     541.111
  O     -268.275    -796.547     541.661
  O     -265.748    -796.517     541.584
  O     -267.004    -797.339     539.511
  H     -265.529    -797.453     541.695
  H     -270.303    -796.422     541.915
  H     -269.736    -797.581     540.672
  H     -269.691    -795.839     540.336
  H     -264.721    -799.872     538.524
  H     -263.234    -799.341     539.273
  H     -263.274    -799.692     537.561

 3  4  5  6  7  8  9  10  11  12  23  26  30  31 0
 6-311+G(2d,p)
 ****
 33  35  36  37  38 0
 6-311+G(2d,p)
 ****
 1  2  13  14  15  16  17  18  19  20  21  22  24  25 0
 3-21G
 ****
 27  28  29  32  34  39  40  41  42  43  44  45  46  47  48  49 0
 3-21G
 ****


