%nproc=1
%NoSave
%Mem=1900MB
#P OB98/GEN NMR

erre ene a

0 1
  C      194.840    -304.958     141.276
  O      195.757    -305.530     140.333
  P      196.475    -304.532     139.303
  C      198.892    -304.870     140.253
  O      197.786    -304.002     140.058
  C      199.810    -304.834     139.031
  O      200.391    -303.515     138.871
  C      200.993    -305.788     139.107
  O      200.584    -307.133     138.889
  C      201.902    -305.207     138.032
  O      201.477    -305.643     136.735
  C      201.655    -303.693     138.191
  N      202.736    -303.007     138.885
  C      203.845    -302.663     138.102
  O      203.928    -302.936     136.909
  N      204.857    -302.018     138.758
  C      204.888    -301.708     140.088
  O      205.822    -301.110     140.615
  C      203.722    -302.140     140.869
  C      202.713    -302.756     140.246
  O      195.468    -303.287     139.331
  O      196.693    -305.140     137.959
  H      195.077    -303.137     140.206
  H      201.567    -306.622     136.725
  H      205.661    -301.752     138.206
  H      203.721    -301.937     141.931
  H      201.846    -303.089     140.804
  H      201.538    -303.226     137.204
  H      202.942    -305.519     138.155
  H      201.472    -305.707     140.094
  H      199.201    -305.051     138.143
  H      198.537    -305.895     140.402
  H      199.424    -304.572     141.163
  P      201.564    -308.284     139.425
  C      200.710    -308.188     141.898
  O      201.775    -308.008     140.988
  O      202.955    -307.842     138.769
  O      201.123    -309.669     139.071
  H      203.125    -306.891     138.837
  H      201.120    -308.295     142.898
  H      200.125    -309.079     141.652
  H      200.058    -307.307     141.871
  H      194.438    -305.731     141.896
  H      194.045    -304.472     140.750
  H      195.354    -304.244     141.885

 3  4  5  6  7  8  9  10  11  12  13  24  28  29  30  31  32 0
 6-311+G(2d,p)
 ****
 33  34 0
 6-311+G(2d,p)
 ****
 1  2  14  15  16  17  18  19  20  21  22  23  25  26  27 0
 3-21G
 ****
 35  36  37  38  39  40  41  42  43  44  45 0
 3-21G
 ****


