%nproc=1
%NoSave
%Mem=1900MB
#P OB98/GEN NMR

erre ene a

0 1
  C      366.913     330.707    -895.990
  O      366.512     330.513    -894.640
  P      367.301     329.412    -893.780
  C      367.553     326.816    -893.960
  O      366.776     327.984    -894.240
  C      367.232     325.697    -894.950
  O      367.664     326.079    -896.290
  C      367.907     324.384    -894.650
  O      367.250     323.681    -893.600
  C      367.840     323.663    -895.990
  O      366.561     323.026    -896.170
  C      367.986     324.844    -896.980
  N      369.341     324.908    -897.570
  C      369.567     324.080    -898.660
  O      368.719     323.309    -899.100
  N      370.834     324.128    -899.210
  C      371.864     324.892    -898.750
  O      372.979     324.846    -899.240
  C      371.566     325.748    -897.580
  C      370.338     325.698    -897.060
  O      366.715     329.584    -892.300
  O      368.808     329.556    -893.810
  H      365.910     323.757    -896.290
  H      367.416     329.415    -891.650
  H      371.011     323.530    -900.000
  H      372.383     326.350    -897.170
  H      370.119     326.303    -896.180
  H      367.258     324.753    -897.810
  H      368.593     322.893    -896.100
  H      368.980     324.530    -894.390
  H      366.131     325.566    -894.980
  H      367.349     326.480    -892.940
  H      368.612     327.081    -894.030
  P      368.173     322.755    -892.660
  C      369.716     320.744    -893.250
  O      368.554     321.495    -893.540
  O      367.065     322.233    -891.600
  O      369.308     323.516    -892.040
  H      366.196     322.113    -892.010
  H      369.904     320.703    -892.190
  H      370.567     321.201    -893.760
  H      369.586     319.725    -893.670
  H      366.305     331.465    -896.437
  H      366.798     329.791    -896.531
  H      367.939     331.011    -896.017

 3  4  5  6  7  8  9  10  11  12  13  23  28  29  30  31  32 0
 6-311+G(2d,p)
 ****
 33  34 0
 6-311+G(2d,p)
 ****
 1  2  14  15  16  17  18  19  20  21  22  24  25  26 0
 3-21G
 ****
 27  35  36  37  38  39  40  41  42  43  44  45 0
 3-21G
 ****


