%nproc=1
%NoSave
%Mem=1900MB
#P OB98/GEN NMR

erre ene a

0 1
  C      -40.973     -15.899      18.125
  O      -41.278     -17.272      18.295
  P      -42.426     -17.918      17.386
  C      -40.971     -19.385      15.807
  O      -41.790     -18.234      15.948
  C      -41.562     -20.335      14.763
  O      -41.764     -19.610      13.512
  C      -40.675     -21.549      14.450
  O      -41.542     -22.654      14.159
  C      -39.961     -21.116      13.183
  O      -39.424     -22.201      12.444
  C      -41.095     -20.363      12.478
  N      -40.620     -19.497      11.402
  C      -40.510     -20.057      10.132
  O      -40.787     -21.227       9.870
  N      -40.005     -19.236       9.161
  C      -39.524     -17.972       9.345
  O      -38.975     -17.332       8.456
  C      -39.665     -17.433      10.706
  C      -40.199     -18.206      11.656
  O      -43.408     -16.686      17.105
  O      -43.142     -19.070      18.011
  H      -38.687     -22.573      12.962
  H      -44.183     -16.727      17.695
  H      -39.929     -19.622       8.231
  H      -39.314     -16.425      10.883
  H      -40.296     -17.840      12.673
  H      -41.828     -21.075      12.077
  H      -39.136     -20.443      13.442
  H      -39.985     -21.808      15.258
  H      -42.549     -20.664      15.109
  H      -40.911     -19.901      16.767
  H      -39.957     -19.082      15.524
  P      -41.001     -24.135      14.468
  C      -42.517     -24.065      16.596
  O      -41.276     -24.411      16.021
  O      -39.418     -23.897      14.391
  O      -41.497     -25.168      13.509
  H      -39.142     -23.079      14.837
  H      -43.341     -24.196      15.887
  H      -42.487     -23.024      16.925
  H      -42.696     -24.705      17.464
  H      -40.191     -15.621      18.800
  H      -41.844     -15.312      18.328
  H      -40.654     -15.727      17.118

 3  4  5  6  7  8  9  10  11  12  13  23  28  29  30  31  32 0
 6-311+G(2d,p)
 ****
 33  34 0
 6-311+G(2d,p)
 ****
 1  2  14  15  16  17  18  19  20  21  22  24  25  26 0
 3-21G
 ****
 27  35  36  37  38  39  40  41  42  43  44  45 0
 3-21G
 ****


