%nproc=1
%NoSave
%Mem=1900MB
#P OB98/GEN NMR

erre ene a

0 1
  C     -160.270    -150.385     -59.408
  O     -159.892    -149.040     -59.724
  P     -159.105    -148.229     -58.587
  C     -157.008    -147.514     -59.943
  O     -158.209    -147.104     -59.300
  C     -156.362    -146.325     -60.654
  O     -157.207    -145.804     -61.703
  C     -156.092    -145.140     -59.731
  O     -154.966    -145.389     -58.901
  C     -155.894    -144.026     -60.753
  O     -154.570    -144.082     -61.309
  C     -156.927    -144.388     -61.829
  N     -159.028    -139.727     -62.029
  C     -157.755    -140.152     -62.185
  N     -157.274    -141.410     -62.113
  C     -158.266    -142.282     -61.867
  C     -159.613    -142.001     -61.691
  C     -159.987    -140.647     -61.778
  N     -161.287    -140.215     -61.606
  N     -160.326    -143.159     -61.453
  C     -159.423    -144.120     -61.464
  N     -158.165    -143.641     -61.720
  O     -158.032    -149.287     -58.048
  O     -159.987    -147.730     -57.487
  H     -154.379    -145.022     -61.512
  H     -158.283    -149.592     -57.158
  H     -157.024    -139.374     -62.388
  H     -159.629    -145.169     -61.290
  H     -156.539    -144.226     -62.842
  H     -156.029    -143.027     -60.324
  H     -156.975    -144.934     -59.115
  H     -155.418    -146.670     -61.107
  H     -157.214    -148.308     -60.663
  H     -161.458    -139.224     -61.605
  H     -161.989    -140.886     -61.333
  H     -156.333    -147.939     -59.190
  P     -154.930    -144.664     -57.469
  C     -154.813    -146.900     -56.211
  O     -154.126    -145.709     -56.543
  O     -156.435    -144.840     -56.976
  O     -154.398    -143.273     -57.481
  H     -156.761    -145.747     -57.125
  H     -154.147    -147.534     -55.611
  H     -155.095    -147.443     -57.122
  H     -155.708    -146.668     -55.624
  H     -160.785    -150.816     -60.241
  H     -160.914    -150.383     -58.553
  H     -159.394    -150.961     -59.193

 3  4  5  6  7  8  9  10  11  12  22  25  29  30  31  32 0
 6-311+G(2d,p)
 ****
 33  36  37 0
 6-311+G(2d,p)
 ****
 1  2  13  14  15  16  17  18  19  20  21  23  24  26 0
 3-21G
 ****
 27  28  34  35  38  39  40  41  42  43  44  45  46  47  48 0
 3-21G
 ****


