%nproc=1
%NoSave
%Mem=1900MB
#P OB98/GEN NMR

erre ene a

0 1
  C       54.603    -184.194     207.259
  O       53.869    -184.973     206.333
  H       53.921    -183.494     207.749
  H       55.376    -183.626     206.735
  H       55.060    -184.833     208.020
  P       54.639    -186.216     205.681
  C       53.448    -188.235     206.856
  O       53.620    -187.461     205.677
  C       52.133    -189.006     206.789
  O       51.011    -188.124     206.988
  C       51.853    -189.646     205.439
  O       52.667    -190.770     205.191
  C       50.376    -189.988     205.591
  O       50.189    -191.238     206.264
  C       49.855    -188.815     206.455
  N       48.983    -187.935     205.702
  C       47.630    -187.973     206.069
  O       47.261    -188.705     206.989
  N       46.736    -187.215     205.361
  C       47.146    -186.503     204.358
  N       46.202    -185.800     203.677
  C       48.561    -186.436     203.938
  C       49.418    -187.170     204.646
  O       55.690    -186.608     206.821
  O       55.255    -185.942     204.350
  H       50.853    -191.853     205.892
  H       55.296    -186.690     207.705
  H       48.854    -185.816     203.103
  H       50.474    -187.180     204.406
  H       49.294    -189.196     207.320
  H       49.881    -190.072     204.620
  H       51.950    -188.899     204.641
  H       52.135    -189.755     207.593
  H       45.238    -185.918     203.965
  H       53.467    -187.594     207.744
  H       46.392    -185.275     202.836
  H       54.293    -188.926     206.928
  P       53.399    -190.973     203.782
  C       55.649    -191.952     204.569
  O       54.395    -192.224     203.953
  O       54.041    -189.753     203.213
  O       52.244    -191.592     202.859
  H       51.874    -192.433     203.178
  H       56.221    -192.854     204.627
  H       55.486    -191.568     205.555
  H       56.182    -191.229     203.988

 6  7  8  9  10  11  12  13  14  15  16  26  30  31  32  33  35 0
 6-311+G(2d,p)
 ****
 37  38 0
 6-311+G(2d,p)
 ****
 1  2  3  4  5  17  18  19  20  21  22  23  24  25 0
 3-21G
 ****
 27  28  29  34  36  39  40  41  42  43  44  45  46 0
 3-21G
 ****


