%nproc=1
%NoSave
%Mem=1900MB
#P OB98/GEN NMR

erre ene a

0 1
  C       30.484      75.351      -3.308
  O       30.360      74.892      -1.975
  H       29.631      75.010      -3.899
  H       30.497      76.444      -3.303
  H       31.416      74.990      -3.753
  P       30.498      73.311      -1.739
  C       31.716      73.646       0.535
  O       30.589      73.113      -0.146
  C       31.449      73.716       2.039
  O       30.564      74.836       2.306
  C       30.786      72.454       2.601
  O       31.332      72.178       3.893
  C       29.324      72.850       2.732
  O       28.643      72.083       3.719
  C       29.443      74.338       3.065
  N       24.673      75.390       4.549
  C       25.676      74.717       5.148
  N       26.924      74.484       4.686
  C       27.103      75.080       3.492
  C       26.173      75.798       2.757
  C       24.899      75.940       3.330
  N       23.859      76.593       2.710
  N       26.725      76.220       1.560
  C       27.962      75.763       1.576
  N       28.233      75.064       2.720
  O       31.995      73.020      -2.239
  O       29.495      72.458      -2.442
  H       29.173      72.105       4.543
  H       32.005      72.968      -3.216
  H       25.446      74.300       6.128
  H       28.691      75.900       0.788
  H       29.637      74.514       4.130
  H       28.814      72.705       1.772
  H       30.918      71.582       1.956
  H       32.394      73.930       2.553
  H       31.918      74.655       0.151
  H       22.963      76.601       3.169
  H       23.991      76.957       1.777
  H       32.588      73.010       0.342
  P       32.283      70.889       4.016
  C       33.447      71.801       6.146
  O       32.732      70.728       5.550
  O       33.626      71.344       3.271
  O       31.704      69.658       3.392
  H       33.895      70.667       2.625
  H       33.678      71.555       7.161
  H       32.847      72.687       6.121
  H       34.354      71.969       5.605

 6  7  8  9  10  11  12  13  14  15  25  28  32  33  34  35 0
 6-311+G(2d,p)
 ****
 36  39  40 0
 6-311+G(2d,p)
 ****
 1  2  3  4  5  16  17  18  19  20  21  22  23  24 0
 3-21G
 ****
 26  27  29  30  31  37  38  41  42  43  44  45  46  47 0
 3-21G
 ****
 48 0
 3-21G
 ****


