%nproc=1
%NoSave
%Mem=1900MB
#P OB98/GEN NMR

erre ene a

0 1
  C     -549.124     -91.811      91.394
  O     -547.749     -91.635      91.110
  H     -549.255     -92.489      92.242
  H     -549.556     -90.839      91.650
  H     -549.639     -92.209      90.517
  P     -546.907     -92.969      90.822
  C     -545.443     -94.153      92.610
  O     -546.749     -93.728      92.228
  C     -544.818     -93.130      93.557
  O     -545.558     -93.078      94.800
  C     -543.383     -93.442      93.963
  O     -542.457     -93.080      92.947
  C     -543.241     -92.554      95.197
  O     -542.971     -91.196      94.792
  C     -544.634     -92.648      95.830
  N     -544.884     -93.119     100.943
  C     -544.820     -92.032     100.151
  N     -544.744     -91.982      98.801
  C     -544.763     -93.217      98.264
  C     -544.824     -94.423      98.952
  C     -544.889     -94.346     100.371
  N     -544.936     -95.468     101.173
  N     -544.828     -95.490      98.080
  C     -544.768     -94.938      96.885
  N     -544.716     -93.573      96.943
  O     -545.431     -92.422      90.522
  O     -547.412     -93.814      89.690
  H     -542.079     -91.193      94.404
  H     -545.017     -92.979      89.839
  H     -544.833     -91.074     100.649
  H     -544.765     -95.494      95.954
  H     -544.984     -91.662      96.181
  H     -542.431     -92.862      95.853
  H     -543.267     -94.496      94.263
  H     -544.887     -92.147      93.076
  H     -544.814     -94.243      91.715
  H     -545.164     -95.345     102.140
  H     -544.934     -96.369     100.725
  H     -545.526     -95.127      93.101
  P     -541.136     -93.990      92.788
  C     -538.950     -92.694      93.306
  O     -540.074     -93.404      93.830
  O     -540.553     -93.542      91.367
  O     -541.379     -95.473      92.854
  H     -540.020     -94.274      90.986
  H     -538.330     -92.363      94.113
  H     -539.292     -91.847      92.748
  H     -538.387     -93.340      92.665

 6  7  8  9  10  11  12  13  14  15  25  28  32  33  34  35 0
 6-311+G(2d,p)
 ****
 36  39  40 0
 6-311+G(2d,p)
 ****
 1  2  3  4  5  16  17  18  19  20  21  22  23  24 0
 3-21G
 ****
 26  27  29  30  31  37  38  41  42  43  44  45  46  47  48 0
 3-21G
 ****


