%nproc=1
%NoSave
%Mem=1900MB
#P OB98/GEN NMR

erre ene a

0 1
  C       -9.739    -117.111    -205.377
  O       -8.593    -117.877    -205.703
  H       -9.433    -116.073    -205.226
  H      -10.191    -117.483    -204.455
  H      -10.463    -117.152    -206.195
  P       -8.835    -119.438    -205.989
  C      -10.251    -120.694    -207.757
  O       -9.998    -119.460    -207.094
  C      -11.754    -120.941    -207.870
  O      -12.301    -121.322    -206.595
  C      -12.559    -119.727    -208.320
  O      -12.495    -119.573    -209.729
  C      -13.952    -120.125    -207.859
  O      -14.533    -121.046    -208.803
  C      -13.673    -120.848    -206.529
  N      -16.581    -119.916    -202.402
  C      -16.788    -120.688    -203.491
  N      -15.992    -120.855    -204.567
  C      -14.874    -120.119    -204.451
  C      -14.523    -119.286    -203.398
  C      -15.433    -119.203    -202.330
  N      -15.210    -118.422    -201.216
  N      -13.300    -118.692    -203.628
  C      -12.895    -119.200    -204.776
  N      -13.828    -120.040    -205.330
  O       -9.047    -120.291    -204.786
  O       -7.535    -119.794    -206.855
  H      -15.482    -121.123    -208.592
  H       -7.316    -119.063    -207.459
  H      -17.718    -121.249    -203.498
  H      -11.933    -119.005    -205.235
  H      -14.317    -121.724    -206.398
  H      -14.628    -119.269    -207.793
  H      -12.249    -118.822    -207.786
  H      -11.904    -121.786    -208.554
  H       -9.777    -121.520    -207.220
  H      -15.985    -118.288    -200.581
  H      -14.417    -117.799    -201.221
  H       -9.804    -120.627    -208.754
  P      -12.578    -118.115    -210.394
  C      -10.951    -116.126    -210.480
  O      -11.416    -117.237    -209.720
  O      -13.928    -117.485    -210.364
  O      -12.054    -118.325    -211.888
  H      -12.568    -117.776    -212.510
  H      -10.183    -115.618    -209.936
  H      -11.763    -115.453    -210.662
  H      -10.558    -116.472    -211.413

 6  7  8  9  10  11  12  13  14  15  25  28  32  33  34  35 0
 6-311+G(2d,p)
 ****
 36  39  40 0
 6-311+G(2d,p)
 ****
 1  2  3  4  5  16  17  18  19  20  21  22  23  24 0
 3-21G
 ****
 26  27  29  30  31  37  38  41  42  43  44  45  46  47 0
 3-21G
 ****
 48 0
 3-21G
 ****


