%nproc=1
%NoSave
%Mem=1900MB
#P OB98/GEN NMR

erre ene a

0 1
  C     -321.619       6.642    -151.165
  O     -322.613       5.708    -150.746
  P     -322.175       4.488    -149.804
  C     -324.305       4.820    -148.392
  O     -323.493       3.895    -149.106
  C     -325.755       4.758    -148.876
  O     -325.880       5.187    -150.248
  C     -326.340       3.354    -148.844
  O     -326.639       2.961    -147.512
  C     -327.540       3.508    -149.760
  O     -328.659       4.075    -149.056
  C     -327.020       4.509    -150.815
  N     -326.686       3.882    -152.086
  C     -327.451       4.283    -153.187
  O     -328.372       5.088    -153.043
  N     -327.162       3.744    -154.418
  C     -326.200       2.883    -154.535
  N     -325.959       2.388    -155.781
  C     -325.379       2.427    -153.400
  C     -325.679       2.957    -152.213
  O     -321.034       4.761    -148.879
  O     -321.800       3.340    -150.863
  H     -328.861       3.455    -148.329
  H     -321.107       2.771    -150.475
  H     -324.584       1.706    -153.550
  H     -325.127       2.673    -151.326
  H     -327.775       5.282    -151.013
  H     -327.870       2.545    -150.164
  H     -325.626       2.646    -149.286
  H     -326.354       5.428    -148.245
  H     -326.544       2.708    -156.541
  H     -323.910       5.831    -148.530
  H     -325.202       1.750    -155.981
  H     -324.235       4.600    -147.320
  P     -325.846       1.702    -146.912
  C     -325.519       2.857    -144.613
  O     -326.013       1.734    -145.318
  O     -324.309       2.105    -147.133
  O     -326.159       0.394    -147.566
  H     -323.786       1.305    -147.316
  H     -325.981       2.874    -143.620
  H     -325.765       3.790    -145.129
  H     -324.438       2.774    -144.499
  H     -322.070       7.389    -151.784
  H     -320.860       6.131    -151.719
  H     -321.181       7.106    -150.306

 3  4  5  6  7  8  9  10  11  12  13  23  27  28  29  30  32 0
 6-311+G(2d,p)
 ****
 34  35 0
 6-311+G(2d,p)
 ****
 1  2  14  15  16  17  18  19  20  21  22  24  25  26 0
 3-21G
 ****
 31  33  36  37  38  39  40  41  42  43  44  45  46 0
 3-21G
 ****


