%nproc=1
%NoSave
%Mem=1900MB
#P OB98/GEN NMR

erre ene a

0 1
  C      887.187    -251.270     -60.079
  O      888.406    -251.559     -59.375
  P      889.741    -251.820     -60.226
  C      890.834    -249.582     -59.528
  O      890.941    -251.009     -59.545
  C      891.512    -248.990     -58.271
  O      890.699    -249.307     -57.111
  C      892.900    -249.564     -57.975
  O      894.036    -248.925     -58.555
  C      893.000    -249.323     -56.473
  O      893.420    -247.976     -56.213
  C      891.575    -249.513     -55.972
  N      891.314    -252.191     -51.607
  C      891.556    -250.887     -51.861
  N      891.604    -250.255     -53.049
  C      891.365    -251.102     -54.060
  C      891.082    -252.466     -53.956
  C      891.076    -253.017     -52.664
  N      890.832    -254.347     -52.404
  N      890.901    -253.019     -55.216
  C      891.065    -252.012     -56.055
  N      891.328    -250.828     -55.408
  O      889.607    -251.660     -61.710
  O      890.099    -253.340     -59.853
  H      893.613    -247.921     -55.259
  H      890.453    -253.785     -60.647
  H      891.741    -250.269     -50.986
  H      890.997    -252.094     -57.127
  H      891.279    -248.778     -55.205
  H      893.746    -249.973     -55.987
  H      892.943    -250.647     -58.177
  H      891.563    -247.902     -58.370
  H      889.768    -249.302     -59.538
  H      890.890    -254.672     -51.462
  H      890.708    -254.992     -53.186
  H      891.269    -249.210     -60.457
  P      895.452    -249.690     -58.691
  C      895.849    -249.371     -61.266
  O      896.189    -249.004     -59.946
  O      895.357    -251.186     -58.779
  O      896.260    -249.133     -57.438
  H      896.505    -248.197     -57.493
  H      896.305    -248.651     -61.949
  H      894.766    -249.354     -61.413
  H      896.248    -250.364     -61.491
  H      886.395    -251.122     -59.375
  H      886.944    -252.090     -60.722
  H      887.315    -250.383     -60.664

 3  4  5  6  7  8  9  10  11  12  22  25  29  30  31  32 0
 6-311+G(2d,p)
 ****
 33  36  37 0
 6-311+G(2d,p)
 ****
 1  2  13  14  15  16  17  18  19  20  21  23  24  26 0
 3-21G
 ****
 27  28  34  35  38  39  40  41  42  43  44  45  46  47  48 0
 3-21G
 ****


