%nproc=1
%NoSave
%Mem=1900MB
#P OB98/GEN NMR

erre ene a

0 1
  C     -432.978    -664.273    1113.801
  O     -433.646    -664.030    1112.582
  P     -432.901    -663.341    1111.340
  C     -432.185    -665.424    1110.004
  O     -433.121    -664.365    1110.118
  C     -432.803    -666.623    1109.285
  O     -433.854    -667.159    1110.115
  C     -433.456    -666.321    1107.931
  O     -432.552    -666.322    1106.818
  C     -434.405    -667.509    1107.811
  O     -433.651    -668.669    1107.379
  C     -434.871    -667.683    1109.244
  N     -439.911    -668.383    1109.941
  C     -438.889    -669.266    1109.758
  N     -437.580    -668.992    1109.577
  C     -437.333    -667.682    1109.605
  C     -438.286    -666.678    1109.803
  C     -439.625    -667.061    1109.977
  N     -440.644    -666.171    1110.175
  N     -437.672    -665.413    1109.766
  C     -436.398    -665.682    1109.592
  N     -436.146    -667.044    1109.507
  O     -431.493    -662.940    1111.613
  O     -433.842    -662.104    1110.955
  H     -433.310    -668.484    1106.480
  H     -433.349    -661.490    1110.384
  H     -439.154    -670.305    1109.771
  H     -435.618    -664.943    1109.506
  H     -434.998    -668.771    1109.538
  H     -435.161    -667.356    1107.060
  H     -434.042    -665.404    1107.963
  H     -432.010    -667.416    1109.188
  H     -431.870    -665.736    1111.004
  H     -441.592    -666.548    1110.434
  H     -440.430    -665.198    1110.359
  H     -431.278    -665.060    1109.488
  P     -432.794    -665.204    1105.695
  C     -430.592    -663.773    1105.844
  O     -431.335    -664.783    1105.185
  O     -433.651    -664.077    1106.124
  O     -433.376    -666.059    1104.473
  H     -432.746    -666.702    1104.067
  H     -429.605    -663.750    1105.442
  H     -430.540    -663.962    1106.911
  H     -431.063    -662.787    1105.661
  H     -433.652    -664.736    1114.491
  H     -432.631    -663.346    1114.209
  H     -432.144    -664.921    1113.628

 3  4  5  6  7  8  9  10  11  12  22  25  29  30  31  32 0
 6-311+G(2d,p)
 ****
 33  36  37 0
 6-311+G(2d,p)
 ****
 1  2  13  14  15  16  17  18  19  20  21  23  24  26 0
 3-21G
 ****
 27  28  34  35  38  39  40  41  42  43  44  45  46  47  48 0
 3-21G
 ****


