%nproc=1
%NoSave
%Mem=1900MB
#P OB98/GEN NMR

erre ene a

0 1
  C       58.042       9.323      12.707
  O       57.817       9.516      11.308
  P       56.543      10.395      10.880
  C       55.069       8.286      10.415
  O       55.673       9.462       9.905
  C       55.031       7.186       9.350
  O       54.550       7.739       8.088
  C       56.384       6.517       9.081
  O       56.120       5.129       8.835
  C       56.854       7.197       7.809
  O       57.814       6.417       7.111
  C       55.520       7.386       7.080
  N       55.589       8.394       6.025
  C       55.605       7.934       4.715
  O       55.642       6.740       4.427
  N       55.624       8.897       3.743
  C       55.707      10.244       3.952
  O       55.722      11.064       3.043
  C       55.802      10.665       5.359
  C       55.741       9.734       6.314
  O       57.213      11.471       9.909
  O       55.808      10.962      12.048
  H       57.932      11.107       9.365
  H       58.101       6.904       6.312
  H       55.603       8.586       2.784
  H       55.928      11.720       5.563
  H       55.831      10.008       7.356
  H       55.192       6.440       6.631
  H       57.303       8.167       8.048
  H       57.082       6.620       9.916
  H       54.301       6.431       9.670
  H       54.045       8.504      10.734
  H       55.616       7.957      11.305
  P       57.260       4.058       9.216
  C       57.434       2.823       6.916
  O       57.046       2.785       8.270
  O       56.703       3.551      10.633
  O       58.643       4.612       9.304
  H       55.756       3.338      10.615
  H       57.427       1.805       6.520
  H       58.442       3.230       6.805
  H       56.727       3.428       6.343
  H       58.917       8.724      12.848
  H       57.197       8.828      13.139
  H       58.180      10.273      13.180

 3  4  5  6  7  8  9  10  11  12  13  24  28  29  30  31  32 0
 6-311+G(2d,p)
 ****
 33  34 0
 6-311+G(2d,p)
 ****
 1  2  14  15  16  17  18  19  20  21  22  23  25  26  27 0
 3-21G
 ****
 35  36  37  38  39  40  41  42  43  44  45 0
 3-21G
 ****


