%nproc=1
%NoSave
%Mem=1900MB
#P OB98/GEN NMR

erre ene a

0 1
  C      -45.893      15.655      -0.455
  O      -45.531      14.738       0.564
  P      -45.123      15.333       2.000
  C      -42.576      14.855       1.726
  O      -43.772      14.587       2.440
  C      -41.788      13.564       1.496
  O      -41.231      13.131       2.764
  C      -42.613      12.398       0.942
  O      -41.737      11.623       0.114
  C      -42.967      11.607       2.187
  O      -43.307      10.254       1.901
  C      -41.695      11.786       3.007
  N      -40.384       9.151       7.119
  C      -39.989       8.992       5.803
  N      -39.069       8.032       5.566
  N      -40.451       9.710       4.813
  C      -41.351      10.641       5.208
  C      -41.850      10.868       6.468
  C      -41.303      10.094       7.559
  O      -41.560      10.259       8.749
  N      -42.817      11.838       6.459
  C      -42.843      12.252       5.209
  N      -41.941      11.589       4.422
  O      -46.231      14.712       2.970
  O      -45.053      16.825       2.087
  H      -42.595       9.877       1.346
  H      -46.980      15.329       3.089
  H      -39.978       8.580       7.841
  H      -43.485      13.026       4.819
  H      -40.901      11.090       2.708
  H      -43.827      12.071       2.686
  H      -38.648       7.464       6.284
  H      -43.493      12.713       0.375
  H      -38.738       7.917       4.615
  H      -40.947      13.789       0.829
  H      -41.959      15.540       2.316
  H      -42.817      15.339       0.775
  P      -42.267      11.184      -1.334
  C      -42.435       8.611      -1.097
  O      -41.719       9.710      -1.624
  O      -41.398      12.100      -2.323
  O      -43.728      11.399      -1.559
  H      -41.923      12.312      -3.117
  H      -42.197       7.721      -1.685
  H      -43.516       8.779      -1.134
  H      -42.131       8.441      -0.062
  H      -46.138      15.118      -1.348
  H      -45.073      16.315      -0.649
  H      -46.741      16.224      -0.137

 3  4  5  6  7  8  9  10  11  12  23  26  30  31 0
 6-311+G(2d,p)
 ****
 33  35  36  37  38 0
 6-311+G(2d,p)
 ****
 1  2  13  14  15  16  17  18  19  20  21  22  24  25 0
 3-21G
 ****
 27  28  29  32  34  39  40  41  42  43  44  45  46  47  48  49 0
 3-21G
 ****


