%nproc=1
%NoSave
%Mem=1900MB
#P OB98/GEN NMR

erre ene a

0 1
  C      -88.605     213.626     -64.797
  O      -87.610     214.022     -63.861
  P      -87.644     215.527     -63.309
  C      -86.580     217.762     -64.084
  O      -87.010     216.460     -64.454
  C      -86.479     218.679     -65.301
  O      -87.631     218.453     -66.159
  C      -86.446     220.175     -64.971
  O      -85.626     220.811     -65.961
  C      -87.888     220.604     -65.174
  O      -88.009     222.008     -65.389
  C      -88.264     219.734     -66.371
  N      -92.593     221.837     -68.103
  C      -91.310     222.251     -68.159
  N      -90.210     221.635     -67.676
  C      -90.537     220.475     -67.081
  C      -91.806     219.944     -66.916
  C      -92.873     220.675     -67.466
  N      -94.181     220.253     -67.419
  N      -91.747     218.749     -66.227
  C      -90.465     218.563     -65.981
  N      -89.697     219.567     -66.499
  O      -86.517     215.509     -62.173
  O      -88.956     215.977     -62.766
  H      -87.274     222.292     -65.964
  H      -86.930     215.604     -61.292
  H      -91.140     223.196     -68.665
  H      -90.049     217.728     -65.434
  H      -87.886     220.146     -67.317
  H      -88.480     220.343     -64.290
  H      -86.075     220.405     -63.967
  H      -85.590     218.393     -65.876
  H      -85.592     217.687     -63.620
  H      -94.868     220.762     -67.953
  H      -94.377     219.303     -67.117
  H      -87.275     218.183     -63.348
  P      -84.418     221.721     -65.427
  C      -84.273     223.902     -64.031
  O      -85.073     223.055     -64.832
  O      -83.706     222.214     -66.775
  O      -83.464     221.003     -64.530
  H      -82.760     222.389     -66.606
  H      -84.585     224.939     -64.191
  H      -83.209     223.809     -64.274
  H      -84.422     223.645     -62.977
  H      -88.451     212.603     -65.069
  H      -88.539     214.241     -65.670
  H      -89.574     213.736     -64.356

 3  4  5  6  7  8  9  10  11  12  22  25  29  30  31  32 0
 6-311+G(2d,p)
 ****
 33  36  37 0
 6-311+G(2d,p)
 ****
 1  2  13  14  15  16  17  18  19  20  21  23  24  26 0
 3-21G
 ****
 27  28  34  35  38  39  40  41  42  43  44  45  46  47  48 0
 3-21G
 ****


