%nproc=1
%NoSave
%Mem=1900MB
#P OB98/GEN NMR

erre ene a

0 1
  C      604.646     816.367    1791.132
  O      605.616     817.372    1791.320
  H      604.639     816.083    1790.076
  H      603.651     816.735    1791.387
  H      604.878     815.484    1791.730
  P      605.783     818.015    1792.793
  C      607.897     816.733    1793.580
  O      606.477     816.907    1793.707
  C      608.464     816.061    1794.813
  O      608.150     816.889    1795.970
  C      607.872     814.643    1795.071
  O      608.879     813.635    1795.204
  C      606.900     814.887    1796.199
  O      606.640     813.716    1796.991
  C      607.527     816.046    1796.985
  N      606.561     816.833    1797.750
  C      606.736     816.881    1799.143
  O      607.656     816.300    1799.759
  N      605.826     817.615    1799.814
  C      604.729     818.306    1799.295
  O      603.964     818.925    1799.953
  C      604.601     818.180    1797.833
  C      605.500     817.469    1797.115
  O      604.533     818.612    1793.367
  O      606.934     819.113    1792.605
  H      606.317     813.039    1796.382
  H      606.534     820.000    1792.595
  H      605.970     817.676    1800.795
  H      603.776     818.695    1797.359
  H      605.404     817.383    1796.042
  H      608.301     815.708    1797.644
  H      605.930     815.201    1795.774
  H      607.309     814.313    1794.183
  H      609.570     816.014    1794.711
  H      608.338     817.736    1793.447
  H      608.095     816.137    1792.694
  P      609.308     812.595    1794.056
  C      611.835     813.368    1793.975
  O      610.594     813.198    1793.313
  O      608.209     812.041    1793.203
  O      609.938     811.373    1794.925
  H      609.749     810.568    1794.393
  H      612.549     813.783    1793.294
  H      612.185     812.420    1794.325
  H      611.708     814.030    1794.806

 6  7  8  9  10  11  12  13  14  15  16  26  31  32  33  34  35 0
 6-311+G(2d,p)
 ****
 36  37 0
 6-311+G(2d,p)
 ****
 1  2  3  4  5  17  18  19  20  21  22  23  24  25 0
 3-21G
 ****
 27  28  29  30  38  39  40  41  42  43  44  45 0
 3-21G
 ****


