%nproc=1
%NoSave
%Mem=1900MB
#P OB98/GEN NMR

erre ene a

0 1
  C      564.442     -46.162     253.066
  O      564.109     -46.990     251.961
  P      564.136     -46.321     250.500
  C      562.507     -48.226     249.829
  O      562.803     -46.840     249.767
  C      561.073     -48.491     249.370
  O      560.149     -47.893     250.290
  C      560.732     -47.908     248.009
  O      561.194     -48.727     246.945
  C      559.210     -47.892     248.069
  O      558.698     -49.197     247.740
  C      558.947     -47.564     249.549
  N      555.275     -44.278     250.733
  C      555.219     -45.655     250.597
  N      554.027     -46.241     250.834
  N      556.248     -46.393     250.254
  C      557.382     -45.675     250.089
  C      557.562     -44.312     250.196
  C      556.404     -43.505     250.526
  O      556.378     -42.277     250.597
  N      558.866     -43.956     249.964
  C      559.492     -45.100     249.763
  N      558.622     -46.175     249.790
  O      565.302     -47.127     249.750
  O      564.379     -44.848     250.480
  H      557.732     -49.114     247.666
  H      565.679     -46.579     249.034
  H      554.457     -43.767     251.024
  H      560.548     -45.208     249.580
  H      558.140     -48.187     249.953
  H      558.763     -47.185     247.363
  H      553.238     -45.745     251.234
  H      561.107     -46.878     247.913
  H      553.978     -47.251     250.779
  H      560.909     -49.581     249.372
  H      562.614     -48.580     250.863
  H      563.219     -48.770     249.199
  P      561.399     -48.010     245.520
  C      560.860     -50.421     244.702
  O      560.787     -49.027     244.444
  O      562.982     -48.103     245.287
  O      560.897     -46.602     245.457
  H      563.276     -47.385     244.695
  H      560.730     -50.632     245.766
  H      561.829     -50.797     244.370
  H      560.065     -50.926     244.143
  H      564.384     -46.732     253.969
  H      563.756     -45.342     253.117
  H      565.437     -45.788     252.944

 3  4  5  6  7  8  9  10  11  12  23  26  30  31  33  0
 6-311+G(2d,p)
 ****
 35  36  37  38 0
 6-311+G(2d,p)
 ****
 1  2  13  14  15  16  17  18  19  20  21  22  24  25  27  28  29 0
 3-21G
 ****
 32  34  39  40  41  42  43  44  45  46  47  48  49 0
 3-21G
 ****


