%nproc=1
%NoSave
%Mem=1900MB
#P OB98/GEN NMR

erre ene a

0 1
  C       43.586    -303.544     -97.524
  O       43.317    -303.139     -96.200
  H       44.284    -302.834     -97.971
  H       42.659    -303.540     -98.105
  H       44.032    -304.541     -97.551
  P       42.616    -304.176     -95.203
  C       40.277    -303.573     -96.112
  O       41.221    -304.606     -95.868
  C       38.944    -304.149     -96.606
  O       38.384    -305.014     -95.592
  C       37.932    -303.024     -96.838
  O       36.983    -303.355     -97.850
  C       37.219    -302.928     -95.499
  O       35.934    -302.319     -95.592
  C       37.187    -304.398     -95.082
  N       34.202    -305.409     -91.079
  C       33.849    -305.167     -92.392
  N       32.527    -305.174     -92.671
  N       34.715    -304.926     -93.341
  C       35.997    -304.874     -92.904
  C       36.465    -305.070     -91.625
  C       35.502    -305.378     -90.591
  O       35.756    -305.581     -89.407
  N       37.830    -304.920     -91.563
  C       38.183    -304.626     -92.797
  N       37.108    -304.600     -93.652
  O       42.146    -303.264     -93.972
  O       43.474    -305.316     -94.744
  H       35.462    -302.742     -96.334
  H       42.068    -303.799     -93.164
  H       33.497    -305.604     -90.392
  H       39.196    -304.431     -93.126
  H       36.325    -304.910     -95.535
  H       37.825    -302.310     -94.831
  H       31.823    -305.181     -91.948
  H       38.417    -302.083     -97.103
  H       32.241    -304.718     -93.540
  H       39.105    -304.765     -97.497
  H       40.706    -302.915     -96.875
  H       40.128    -302.976     -95.211
  P       37.408    -303.103     -99.375
  C       36.301    -300.739     -99.653
  O       37.482    -301.518     -99.605
  O       36.120    -303.559    -100.203
  O       38.635    -303.842     -99.787
  H       36.283    -304.419    -100.633
  H       36.557    -299.713     -99.813
  H       35.773    -300.835     -98.727
  H       35.680    -301.081    -100.455

 6  7  8  9  10  11  12  13  14  15  26  29  33  34 0
 6-311+G(2d,p)
 ****
 36  38  39  40  41 0
 6-311+G(2d,p)
 ****
 1  2  3  4  5  16  17  18  19  20  21  22  23  24  25 0
 3-21G
 ****
 27  28  30  31  32  35  37  42  43  44  45  46  47 0
 3-21G
 ****
 48  49 0
 3-21G
 ****


