%nproc=1
%NoSave
%Mem=1900MB
#P OB98/GEN NMR

erre ene a

0 1
  C       93.595      68.353     177.218
  O       93.290      67.227     176.415
  H       92.853      68.423     178.017
  H       93.553      69.266     176.617
  H       94.587      68.239     177.664
  P       94.285      66.934     175.190
  C       92.742      68.200     173.539
  O       94.016      68.142     174.167
  C       92.894      68.485     172.047
  O       93.577      69.735     171.837
  C       93.701      67.439     171.287
  O       92.900      66.312     170.974
  C       94.081      68.226     170.041
  O       92.970      68.250     169.124
  C       94.331      69.639     170.599
  N       98.307      72.607     169.282
  C       97.102      72.414     168.706
  N       96.111      71.581     169.086
  C       96.462      70.893     170.186
  C       97.658      70.984     170.885
  C       98.607      71.897     170.394
  N       99.834      72.098     170.993
  N       97.661      70.124     171.963
  C       96.467      69.565     171.948
  N       95.718      69.972     170.872
  O       94.224      65.559     174.622
  O       95.693      67.342     175.837
  H       92.877      67.351     168.752
  H       95.595      68.128     176.402
  H       96.904      73.015     167.822
  H       96.092      68.878     172.698
  H       93.952      70.415     169.923
  H       94.923      67.778     169.509
  H       94.613      67.165     171.828
  H       91.888      68.590     171.621
  H       92.122      68.974     174.005
  H      100.516      72.638     170.483
  H      100.102      71.480     171.744
  H       92.256      67.231     173.690
  P       93.302      64.852     171.502
  C       93.660      63.630     169.267
  O       94.285      64.222     170.400
  O       92.153      63.979     171.879
  O       94.272      65.126     172.743
  H       94.111      64.474     173.452
  H       94.409      63.247     168.606
  H       93.077      64.367     168.756
  H       93.024      62.831     169.587

 6  7  8  9  10  11  12  13  14  15  25  28  32  33  34  35 0
 6-311+G(2d,p)
 ****
 36  39  40 0
 6-311+G(2d,p)
 ****
 1  2  3  4  5  16  17  18  19  20  21  22  23  24 0
 3-21G
 ****
 26  27  29  30  31  37  38  41  42  43  44  45  46  47 0
 3-21G
 ****
 48 0
 3-21G
 ****


