%nproc=1
%NoSave
%Mem=1900MB
#P OB98/GEN NMR

erre ene a

0 1
  C      -11.337    -892.730    -725.918
  O      -10.839    -893.690    -724.995
  H      -11.034    -893.030    -726.921
  H      -10.905    -891.750    -725.694
  H      -12.424    -892.670    -725.876
  P      -11.398    -893.670    -723.494
  C      -13.766    -894.670    -723.829
  O      -12.997    -893.490    -723.583
  C      -14.554    -895.070    -722.573
  O      -15.585    -894.080    -722.333
  C      -15.256    -896.420    -722.772
  O      -15.434    -897.110    -721.528
  C      -16.622    -896.010    -723.316
  O      -17.628    -897.000    -723.102
  C      -16.870    -894.710    -722.568
  N      -21.646    -893.150    -723.440
  C      -21.202    -894.270    -722.763
  N      -22.172    -895.090    -722.266
  N      -19.944    -894.580    -722.627
  C      -19.099    -893.720    -723.254
  C      -19.427    -892.580    -723.959
  C      -20.824    -892.230    -724.072
  O      -21.271    -891.250    -724.672
  N      -18.298    -891.960    -724.451
  C      -17.304    -892.720    -724.037
  N      -17.735    -893.790    -723.285
  O      -10.925    -892.240    -722.924
  O      -10.931    -894.800    -722.615
  H      -18.376    -896.780    -723.687
  H      -10.896    -892.260    -721.955
  H      -22.636    -892.940    -723.486
  H      -16.252    -892.540    -724.254
  H      -17.331    -894.890    -721.590
  H      -16.529    -895.880    -724.399
  H      -23.140    -894.990    -722.509
  H      -14.735    -897.070    -723.473
  H      -21.877    -896.050    -722.046
  H      -13.888    -895.060    -721.697
  H      -13.058    -895.450    -724.112
  H      -14.437    -894.500    -724.674
  P      -14.575    -898.430    -721.260
  C      -12.668    -897.330    -719.804
  O      -13.064    -898.040    -720.953
  O      -14.504    -899.140    -722.689
  O      -15.163    -899.350    -720.221
  H      -14.970    -900.000    -722.668
  H      -11.608    -897.188    -719.820
  H      -12.940    -897.885    -718.930
  H      -13.155    -896.377    -719.788

 6  7  8  9  10  11  12  13  14  15  26  29  33  34 0
 6-311+G(2d,p)
 ****
 36  38  39  40  41 0
 6-311+G(2d,p)
 ****
 1  2  3  4  5  16  17  18  19  20  21  22  23  24  25 0
 3-21G
 ****
 27  28  30  31  32  35  37  42  43  44  45  46  47 0
 3-21G
 ****
 48  49 0
 3-21G
 ****


