%nproc=1
%NoSave
%Mem=1900MB
#P OB98/GEN NMR

erre ene a

0 1
  C      145.418      60.925    -519.335
  O      145.186      62.314    -519.454
  H      144.468      60.401    -519.435
  H      145.844      60.700    -518.354
  H      146.096      60.585    -520.123
  P      146.461      63.287    -519.362
  C      147.238      65.077    -517.626
  O      146.200      64.193    -518.054
  C      146.690      66.077    -516.594
  O      145.759      66.983    -517.258
  C      145.944      65.409    -515.431
  O      146.317      66.044    -514.212
  C      144.478      65.653    -515.744
  O      143.673      65.664    -514.566
  C      144.523      66.983    -516.510
  N      143.373      67.150    -517.395
  C      142.219      67.743    -516.836
  O      142.221      68.083    -515.655
  N      141.104      67.879    -517.618
  C      141.102      67.412    -518.831
  N      139.952      67.556    -519.548
  C      142.263      66.747    -519.443
  C      143.353      66.653    -518.685
  O      146.237      64.300    -520.583
  O      147.785      62.600    -519.380
  H      142.750      65.902    -514.835
  H      147.053      64.818    -520.778
  H      142.212      66.358    -520.448
  H      144.263      66.178    -519.049
  H      144.556      67.843    -515.819
  H      144.098      64.865    -516.396
  H      146.151      64.337    -515.358
  H      147.527      66.688    -516.234
  H      139.168      68.007    -519.092
  H      147.626      65.611    -518.498
  H      139.832      67.210    -520.489
  H      148.043      64.490    -517.175
  P      146.694      65.053    -512.997
  C      145.463      63.250    -511.594
  O      145.345      64.310    -512.543
  O      147.017      66.056    -511.783
  O      147.835      64.144    -513.307
  H      147.990      66.174    -511.694
  H      144.493      62.849    -511.385
  H      145.896      63.626    -510.691
  H      146.088      62.480    -511.995

 6  7  8  9  10  11  12  13  14  15  16  26  30  31  32  33  35 0
 6-311+G(2d,p)
 ****
 37  38 0
 6-311+G(2d,p)
 ****
 1  2  3  4  5  17  18  19  20  21  22  23  24  25 0
 3-21G
 ****
 27  28  29  34  36  39  40  41  42  43  44  45  46 0
 3-21G
 ****


