%nproc=1
%NoSave
%Mem=1900MB
#P OB98/GEN NMR

erre ene a

0 1
  C     -269.434    -314.240      32.782
  O     -268.097    -314.086      33.207
  H     -269.718    -315.291      32.889
  H     -269.524    -313.966      31.728
  H     -270.113    -313.629      33.386
  P     -267.513    -312.608      33.420
  C     -268.554    -311.636      35.577
  O     -267.473    -312.366      35.008
  C     -268.298    -311.394      37.067
  O     -268.486    -312.656      37.773
  C     -266.871    -310.889      37.371
  O     -266.932    -309.992      38.491
  C     -266.177    -312.174      37.772
  O     -265.008    -311.932      38.515
  C     -267.287    -312.880      38.545
  N     -266.995    -314.302      38.725
  C     -267.134    -314.819      40.009
  O     -267.475    -314.143      40.984
  N     -266.793    -316.134      40.172
  C     -266.233    -316.938      39.214
  O     -265.873    -318.085      39.430
  C     -266.058    -316.323      37.887
  C     -266.446    -315.055      37.701
  O     -268.180    -311.521      32.641
  O     -265.954    -312.741      33.061
  H     -264.571    -312.782      38.732
  H     -265.581    -311.867      32.839
  H     -266.896    -316.527      41.094
  H     -265.601    -316.924      37.109
  H     -266.318    -314.569      36.742
  H     -267.434    -312.417      39.529
  H     -265.894    -312.742      36.875
  H     -266.404    -310.388      36.521
  H     -269.055    -310.701      37.452
  H     -269.475    -312.224      35.443
  H     -268.661    -310.682      35.051
  P     -266.772    -308.405      38.321
  C     -268.867    -307.227      37.409
  O     -268.177    -307.658      38.580
  O     -266.090    -307.992      37.054
  O     -265.881    -307.960      39.582
  H     -265.179    -307.354      39.285
  H     -269.781    -306.747      37.690
  H     -269.084    -308.073      36.791
  H     -268.254    -306.538      36.867

 6  7  8  9  10  11  12  13  14  15  16  26  31  32  33  34  35 0
 6-311+G(2d,p)
 ****
 36  37 0
 6-311+G(2d,p)
 ****
 1  2  3  4  5  17  18  19  20  21  22  23  24  25 0
 3-21G
 ****
 27  28  29  30  38  39  40  41  42  43  44  45 0
 3-21G
 ****


