%nproc=1
%NoSave
%Mem=1900MB
#P OB98/GEN NMR

erre ene a

0 1
  C      617.321    -916.799      -9.351
  O      617.726    -917.437     -10.550
  H      616.648    -917.456      -8.806
  H      616.783    -915.879      -9.614
  H      618.182    -916.557      -8.725
  P      618.997    -916.841     -11.313
  C      620.262    -917.695     -13.421
  O      619.004    -917.500     -12.782
  C      620.131    -918.726     -14.547
  O      619.751    -920.011     -13.974
  C      619.076    -918.365     -15.601
  O      619.554    -918.774     -16.898
  C      617.903    -919.238     -15.231
  O      617.026    -919.475     -16.333
  C      618.632    -920.484     -14.736
  N      614.108    -922.677     -14.754
  C      614.797    -922.031     -15.755
  N      614.169    -921.895     -16.953
  N      616.015    -921.567     -15.618
  C      616.535    -921.773     -14.388
  C      615.953    -922.380     -13.302
  C      614.606    -922.892     -13.464
  O      613.921    -923.449     -12.598
  N      616.785    -922.355     -12.210
  C      617.868    -921.701     -12.632
  N      617.744    -921.335     -13.946
  O      620.229    -917.561     -10.573
  O      619.129    -915.353     -11.281
  H      616.190    -919.819     -15.974
  H      620.572    -916.987      -9.865
  H      613.163    -922.997     -14.913
  H      618.722    -921.463     -12.032
  H      619.013    -921.107     -15.560
  H      617.329    -918.773     -14.431
  H      613.253    -922.261     -17.150
  H      618.823    -917.298     -15.634
  H      614.682    -921.474     -17.707
  H      621.111    -918.856     -15.010
  H      620.981    -918.076     -12.671
  H      620.625    -916.737     -13.813
  P      620.009    -917.646     -17.940
  C      620.584    -917.819     -20.470
  O      619.670    -918.131     -19.422
  O      621.613    -917.709     -17.875
  O      619.527    -916.273     -17.593
  H      621.988    -916.827     -17.992
  H      620.214    -918.211     -21.394
  H      621.537    -918.255     -20.253
  H      620.687    -916.757     -20.549

 6  7  8  9  10  11  12  13  14  15  26  29  33  34 0
 6-311+G(2d,p)
 ****
 36  38  39  40  41 0
 6-311+G(2d,p)
 ****
 1  2  3  4  5  16  17  18  19  20  21  22  23  24  25 0
 3-21G
 ****
 27  28  30  31  32  35  37  42  43  44  45  46  47 0
 3-21G
 ****
 48  49 0
 3-21G
 ****


