%nproc=1
%NoSave
%Mem=1900MB
#P OB98/GEN NMR

erre ene a

0 1
  C     -225.764     -52.577     526.294
  O     -225.410     -51.379     526.964
  H     -226.695     -52.957     526.727
  H     -224.983     -53.330     526.433
  H     -225.919     -52.387     525.230
  P     -224.072     -50.648     526.463
  C     -223.192     -50.554     528.910
  O     -223.505     -49.831     527.725
  C     -222.872     -49.581     530.038
  O     -221.857     -48.647     529.594
  C     -224.047     -48.720     530.469
  O     -224.950     -49.415     531.314
  C     -223.334     -47.562     531.163
  O     -223.003     -47.890     532.520
  C     -222.061     -47.414     530.320
  N     -222.411     -42.330     529.948
  C     -222.248     -43.144     531.010
  N     -222.153     -44.494     531.028
  C     -222.209     -44.982     529.770
  C     -222.371     -44.276     528.596
  C     -222.473     -42.876     528.710
  N     -222.665     -42.037     527.637
  N     -222.432     -45.136     527.513
  C     -222.294     -46.336     528.023
  N     -222.152     -46.301     529.390
  O     -224.626     -49.507     525.487
  O     -223.081     -51.533     525.779
  H     -222.401     -47.190     532.828
  H     -224.539     -49.799     524.562
  H     -222.198     -42.657     531.980
  H     -222.298     -47.262     527.465
  H     -221.172     -47.241     530.939
  H     -223.962     -46.674     531.174
  H     -224.577     -48.329     529.586
  H     -222.465     -50.145     530.891
  H     -222.328     -51.205     528.731
  H     -224.055     -51.181     529.178
  H     -222.796     -41.058     527.801
  H     -222.820     -42.454     526.721
  P     -226.453     -49.610     530.810
  C     -227.085     -50.114     533.293
  O     -227.213     -50.476     531.923
  O     -226.320     -50.619     529.568
  O     -227.143     -48.349     530.424
  H     -226.975     -50.389     528.885
  H     -227.652     -50.792     533.896
  H     -227.451     -49.119     533.435
  H     -226.055     -50.159     533.579

 6  7  8  9  10  11  12  13  14  15  25  28  32  33  34  35 0
 6-311+G(2d,p)
 ****
 36  37  40 0
 6-311+G(2d,p)
 ****
 1  2  3  4  5  16  17  18  19  20  21  22  23  24 0
 3-21G
 ****
 26  27  29  30  31  38  39 41  42  43  44  45  46  47  48 0
 3-21G
 ****


