%nproc=1
%NoSave
%Mem=1900MB
#P OB98/GEN NMR

erre ene a

0 1
  C      -10.097     -13.474     -18.601
  O       -9.342     -12.287     -18.774
  P       -7.760     -12.357     -18.504
  C       -7.996     -10.931     -16.336
  O       -7.553     -12.141     -16.928
  C       -7.393     -10.763     -14.940
  O       -7.957     -11.777     -14.068
  C       -5.869     -10.909     -14.877
  O       -5.409     -10.043     -13.832
  C       -5.680     -12.355     -14.459
  O       -4.404     -12.597     -13.876
  C       -6.860     -12.531     -13.510
  N       -5.718     -16.928     -11.288
  C       -5.034     -15.726     -11.276
  N       -3.920     -15.679     -10.514
  N       -5.409     -14.668     -11.946
  C       -6.549     -14.863     -12.649
  C       -7.293     -16.012     -12.772
  C       -6.890     -17.161     -11.996
  O       -7.512     -18.217     -11.909
  N       -8.335     -15.846     -13.646
  C       -8.267     -14.575     -13.987
  N       -7.230     -13.926     -13.373
  O       -7.228     -10.994     -19.146
  O       -7.062     -13.562     -19.052
  H       -4.342     -13.553     -13.678
  H       -6.931     -11.130     -20.066
  H       -5.391     -17.702     -10.736
  H       -8.939     -14.072     -14.663
  H       -6.653     -12.142     -12.505
  H       -5.778     -13.008     -15.335
  H       -3.591     -16.445      -9.948
  H       -5.367     -10.671     -15.818
  H       -3.418     -14.801     -10.462
  H       -7.701      -9.787     -14.547
  H       -9.087     -10.962     -16.243
  H       -7.729     -10.088     -16.980
  P       -4.118      -9.140     -14.121
  C       -2.562     -10.864     -12.977
  O       -2.844     -10.107     -14.136
  O       -3.942      -8.322     -12.753
  O       -4.251      -8.208     -15.281
  H       -3.567      -7.443     -12.943
  H       -1.954     -11.727     -13.259
  H       -3.476     -11.220     -12.494
  H       -1.996     -10.250     -12.271
  H      -11.127     -13.276     -18.814
  H      -10.001     -13.814     -17.591
  H       -9.733     -14.228     -19.267

 3  4  5  6  7  8  9  10  11  12  23  26  30  31 0
 6-311+G(2d,p)
 ****
 33  35  36  37  38 0
 6-311+G(2d,p)
 ****
 1  2  13  14  15  16  17  18  19  20  21  22  24  25 0
 3-21G
 ****
 27  28  29  32  34  39  40  41  42  43  44  45  46  47  48  49 0
 3-21G
 ****


