%nproc=1
%NoSave
%Mem=1900MB
#P OB98/GEN NMR

erre ene a

0 1
  C     -899.460     409.572    -888.990
  O     -898.070     409.790    -888.810
  H     -900.000     410.432    -888.570
  H     -899.770     408.673    -888.440
  H     -899.710     409.475    -890.040
  P     -897.100     408.727    -889.510
  C     -896.410     410.137    -891.620
  O     -897.110     409.026    -891.090
  C     -895.300     409.648    -892.550
  O     -895.810     408.701    -893.510
  C     -894.700     410.749    -893.420
  O     -893.890     411.646    -892.700
  C     -893.940     409.906    -894.440
  O     -892.690     409.455    -893.890
  C     -894.910     408.725    -894.650
  N     -895.640     408.821    -895.910
  C     -895.920     407.603    -896.550
  O     -895.550     406.544    -896.060
  N     -896.560     407.639    -897.760
  C     -896.920     408.774    -898.290
  N     -897.550     408.737    -899.480
  C     -896.680     410.069    -897.620
  C     -896.040     410.026    -896.450
  O     -897.920     407.359    -889.390
  O     -895.710     408.672    -888.930
  H     -892.220     410.244    -893.580
  H     -898.810     407.418    -889.750
  H     -897.000     410.998    -898.090
  H     -895.810     410.938    -895.910
  H     -894.370     407.772    -894.650
  H     -893.690     410.476    -895.350
  H     -895.500     411.274    -893.970
  H     -894.520     409.153    -891.950
  H     -897.680     407.826    -899.910
  H     -895.980     410.762    -890.810
  H     -897.850     409.556    -900.000
  H     -897.120     410.762    -892.170
  P     -894.070     413.242    -892.890
  C     -894.570     413.429    -890.360
  O     -895.030     413.730    -891.690
  O     -894.500     413.669    -894.240
  O     -892.650     413.815    -892.430
  H     -892.390     413.607    -891.520
  H     -895.278     413.795    -889.646
  H     -893.623     413.898    -890.195
  H     -894.467     412.370    -890.249

 6  7  8  9  10  11  12  13  14  15  16  26  30  31  32  33  35 0
 6-311+G(2d,p)
 ****
 37  38 0
 6-311+G(2d,p)
 ****
 1  2  3  4  5  17  18  19  20  21  22  23  24  25 0
 3-21G
 ****
 27  28  29  34  36  39  40  41  42  43  44  45  46 0
 3-21G
 ****


