%nproc=1
%NoSave
%Mem=1900MB
#P OB98/GEN NMR

erre ene a

0 1
  C     -511.612      41.483    -100.443
  O     -512.402      41.196    -101.579
  H     -511.573      42.562    -100.273
  H     -512.064      41.008     -99.569
  H     -510.601      41.090    -100.576
  P     -511.904      41.798    -102.980
  C     -510.262      39.829    -103.401
  O     -510.420      41.226    -103.198
  C     -509.592      39.581    -104.747
  O     -510.464      39.992    -105.823
  C     -508.292      40.350    -104.953
  O     -507.189      39.717    -104.328
  C     -508.173      40.297    -106.466
  O     -507.706      38.997    -106.871
  C     -509.631      40.499    -106.901
  N     -510.590      43.983    -110.523
  C     -510.256      42.677    -110.594
  N     -510.011      41.819    -109.583
  C     -510.144      42.433    -108.397
  C     -510.472      43.759    -108.169
  C     -510.709      44.552    -109.303
  N     -511.037      45.889    -109.235
  N     -510.478      44.034    -106.814
  C     -510.191      42.884    -106.239
  N     -509.971      41.888    -107.153
  O     -511.653      43.346    -102.656
  O     -512.826      41.598    -104.135
  H     -506.885      38.827    -106.371
  H     -511.663      43.866    -103.481
  H     -510.169      42.268    -111.597
  H     -510.132      42.721    -105.170
  H     -509.882      39.933    -107.805
  H     -507.471      41.029    -106.866
  H     -508.388      41.396    -104.637
  H     -509.425      38.500    -104.849
  H     -511.247      39.351    -103.394
  H     -511.002      46.406    -110.101
  H     -510.979      46.352    -108.340
  H     -509.656      39.413    -102.590
  P     -505.887      40.613    -104.047
  C     -505.999      40.990    -101.477
  O     -506.246      41.520    -102.776
  O     -505.891      41.652    -105.262
  O     -504.609      39.846    -103.959
  H     -504.988      41.968    -105.453
  H     -506.288      41.708    -100.738
  H     -504.957      40.771    -101.373
  H     -506.567      40.093    -101.344

 6  7  8  9  10  11  12  13  14  15  25  28  32  33  34  35 0
 6-311+G(2d,p)
 ****
 36  39  40 0
 6-311+G(2d,p)
 ****
 1  2  3  4  5  16  17  18  19  20  21  22  23  24 0
 3-21G
 ****
 26  27  29  30  31  37  38  41  42  43  44  45  46  47 0
 3-21G
 ****
 48 0
 3-21G
 ****


