%nproc=1
%NoSave
%Mem=1900MB
#P OB98/GEN NMR

erre ene a

0 1
  C      285.285     294.419     226.807
  O      285.236     295.593     227.591
  P      285.122     297.059     226.963
  C      283.889     298.335     228.863
  O      283.805     297.761     227.565
  C      282.532     298.370     229.594
  O      281.995     297.034     229.685
  C      282.721     298.861     231.033
  O      282.780     300.245     231.316
  C      281.693     298.084     231.854
  O      280.503     298.842     232.094
  C      281.383     296.869     230.972
  N      279.997     292.669     233.465
  C      279.203     293.593     232.812
  N      277.871     293.491     233.005
  N      279.680     294.550     232.052
  C      281.031     294.597     232.029
  C      281.926     293.727     232.618
  C      281.378     292.650     233.424
  O      282.049     291.861     234.088
  N      283.226     294.120     232.435
  C      283.127     295.250     231.768
  N      281.817     295.602     231.533
  O      285.399     297.190     225.495
  O      286.302     297.832     227.748
  H      280.749     299.618     232.637
  H      286.682     298.487     227.136
  H      279.569     292.001     234.099
  H      283.965     295.869     231.469
  H      280.306     296.790     230.796
  H      282.104     297.820     232.835
  H      277.476     292.856     233.697
  H      283.695     298.480     231.372
  H      277.273     294.241     232.682
  H      281.792     298.950     229.023
  H      284.293     299.343     228.755
  H      284.600     297.760     229.471
  P      284.103     301.106     231.593
  C      283.453     303.418     230.707
  O      284.211     302.239     230.467
  O      285.302     300.116     231.217
  O      284.255     301.588     232.997
  H      286.124     300.395     231.663
  H      283.362     303.977     229.766
  H      283.965     304.048     231.442
  H      282.449     303.171     231.075
  H      285.360     293.565     227.448
  H      286.137     294.457     226.161
  H      284.394     294.346     226.218

 3  4  5  6  7  8  9  10  11  12  23  26  30  31 0
 6-311+G(2d,p)
 ****
 33  35  36  37  38 0
 6-311+G(2d,p)
 ****
 1  2  13  14  15  16  17  18  19  20  21  22  24  25 0
 3-21G
 ****
 27  28  29  32  34  39  40  41  42  43  44  45  46  47  48  49 0
 3-21G
 ****


