%nproc=1
%NoSave
%Mem=1900MB
#P OB98/GEN NMR

erre ene a

0 1
  C      689.962     382.368     285.040
  O      690.895     381.449     284.503
  P      691.316     381.550     282.955
  C      689.859     382.041     280.895
  O      690.014     381.237     282.063
  C      688.474     381.831     280.289
  O      687.436     382.271     281.207
  C      688.229     382.637     279.015
  O      688.929     382.090     277.919
  C      686.708     382.557     278.914
  O      686.297     381.298     278.347
  C      686.287     382.637     280.399
  N      685.795     383.961     280.761
  C      684.458     384.014     281.175
  O      683.746     383.005     281.135
  N      683.955     385.224     281.611
  C      684.682     386.295     281.519
  N      684.162     387.448     282.016
  C      686.041     386.301     280.931
  C      686.537     385.102     280.598
  O      692.529     380.768     282.575
  O      691.551     383.107     282.717
  H      692.424     383.236     282.265
  H      686.689     380.603     278.894
  H      686.589     387.236     280.821
  H      687.527     385.015     280.186
  H      685.521     381.890     280.614
  H      686.304     383.353     278.276
  H      688.537     383.677     279.165
  H      688.334     380.750     280.106
  H      683.236     387.399     282.426
  H      690.628     381.758     280.177
  H      684.744     388.243     282.299
  H      690.013     383.091     281.154
  P      689.261     383.091     276.693
  C      687.644     384.119     274.950
  O      688.056     382.971     275.632
  O      690.493     382.388     275.949
  O      689.598     384.489     277.107
  H      691.102     383.056     275.617
  H      687.089     383.813     274.061
  H      688.498     384.734     274.654
  H      686.965     384.708     275.599
  H      689.803     382.151     286.076
  H      689.035     382.285     284.512
  H      690.342     383.363     284.938

 3  4  5  6  7  8  9  10  11  12  13  24  27  28  29  30  32 0
 6-311+G(2d,p)
 ****
 34  35 0
 6-311+G(2d,p)
 ****
 1  2  14  15  16  17  18  19  20  21  22  23  25  26 0
 3-21G
 ****
 31  33  36  37  38  39  40  41  42  43  44  45  46 0
 3-21G
 ****


