%nproc=1
%NoSave
%Mem=1900MB
#P OB98/GEN NMR

erre ene a

0 1
  C      670.628     299.689     -83.376
  O      670.817     298.406     -83.944
  P      672.200     298.003     -84.647
  C      671.327     299.064     -86.826
  O      671.903     297.910     -86.224
  C      671.243     298.884     -88.350
  O      672.602     298.695     -88.869
  C      670.404     297.664     -88.769
  O      669.374     297.949     -89.717
  C      671.458     296.667     -89.229
  O      670.957     295.658     -90.086
  C      672.526     297.599     -89.803
  N      673.819     296.923     -89.976
  C      674.399     296.980     -91.238
  O      673.911     297.558     -92.203
  N      675.570     296.284     -91.380
  C      676.139     295.457     -90.464
  O      677.128     294.788     -90.696
  C      675.456     295.410     -89.151
  C      674.359     296.159     -88.958
  O      672.885     296.808     -84.081
  O      673.062     299.354     -84.552
  H      670.849     296.051     -90.976
  H      672.661     300.125     -84.988
  H      676.000     296.312     -92.298
  H      675.871     294.761     -88.402
  H      673.837     296.138     -88.011
  H      672.227     298.011     -90.767
  H      671.853     296.164     -88.333
  H      669.859     297.245     -87.903
  H      670.842     299.809     -88.773
  H      671.955     299.933     -86.601
  H      670.336     299.249     -86.396
  P      667.817     297.636     -89.511
  C      667.691     296.248     -91.706
  O      667.181     297.318     -90.940
  O      667.069     298.638     -88.690
  O      667.813     296.202     -88.787
  H      667.025     296.128     -88.221
  H      667.536     296.467     -92.769
  H      667.146     295.336     -91.458
  H      668.754     296.095     -91.520
  H      669.644     299.754     -82.961
  H      670.746     300.435     -84.134
  H      671.352     299.847     -82.604

 3  4  5  6  7  8  9  10  11  12  13  23  28  29  30  31  32 0
 6-311+G(2d,p)
 ****
 33  34 0
 6-311+G(2d,p)
 ****
 1  2  14  15  16  17  18  19  20  21  22  24  25  26  27 0
 3-21G
 ****
 35  36  37  38  39  40  41  42  43  44  45 0
 3-21G
 ****


