%nproc=1
%NoSave
%Mem=1900MB
#P OB98/GEN NMR

erre ene a

0 1
  C      -31.160     118.000     -79.037
  O      -31.452     117.428     -80.301
  P      -31.803     115.868     -80.430
  C      -34.341     116.199     -80.196
  O      -33.169     115.639     -79.617
  C      -35.289     115.099     -80.667
  O      -35.640     114.267     -79.536
  C      -36.587     115.629     -81.266
  O      -36.982     114.775     -82.344
  C      -37.604     115.484     -80.146
  O      -38.937     115.363     -80.668
  C      -37.076     114.245     -79.418
  N      -40.213     112.302     -75.848
  C      -40.108     112.067     -77.174
  N      -39.268     112.637     -78.067
  C      -38.439     113.497     -77.452
  C      -38.424     113.834     -76.107
  C      -39.367     113.196     -75.284
  N      -39.465     113.426     -73.929
  N      -37.449     114.779     -75.851
  C      -36.875     114.989     -77.015
  N      -37.431     114.229     -78.013
  O      -30.698     114.941     -80.059
  O      -32.252     115.683     -81.952
  H      -39.139     116.197     -81.139
  H      -31.925     114.831     -82.300
  H      -40.791     111.324     -77.575
  H      -36.067     115.682     -77.195
  H      -37.441     113.319     -79.879
  H      -37.571     116.373     -79.505
  H      -36.502     116.662     -81.618
  H      -34.758     114.465     -81.389
  H      -34.045     116.812     -81.052
  H      -40.087     112.835     -73.400
  H      -38.728     113.956     -73.482
  H      -34.836     116.845     -79.461
  P      -37.853     115.472     -83.508
  C      -36.083     115.607     -85.411
  O      -36.784     116.277     -84.389
  O      -39.007     116.244     -82.957
  O      -38.259     114.200     -84.394
  H      -37.615     113.465     -84.284
  H      -35.380     116.309     -85.869
  H      -36.777     115.262     -86.182
  H      -35.526     114.760     -85.004
  H      -30.953     119.043     -79.157
  H      -30.306     117.513     -78.614
  H      -32.000     117.876     -78.386

 3  4  5  6  7  8  9  10  11  12  22  25  29  30  31  32 0
 6-311+G(2d,p)
 ****
 33  36  37 0
 6-311+G(2d,p)
 ****
 1  2  13  14  15  16  17  18  19  20  21  23  24  26 0
 3-21G
 ****
 27  28  34  35  38  39  40  41  42  43  44  45  46  47  48 0
 3-21G
 ****


