%nproc=1
%NoSave
%Mem=1900MB
#P OB98/GEN NMR

erre ene a

0 1
  C     -252.953    -622.604     727.540
  O     -254.227    -623.228     727.481
  P     -254.617    -624.573     728.238
  C     -256.547    -623.792     729.842
  O     -255.189    -624.190     729.688
  C     -257.112    -624.133     731.231
  O     -257.357    -625.558     731.321
  C     -256.108    -623.795     732.328
  O     -256.008    -622.472     732.816
  C     -256.340    -624.839     733.404
  O     -257.238    -624.384     734.424
  C     -256.964    -626.007     732.630
  N     -255.417    -630.479     734.585
  C     -256.347    -629.584     735.079
  N     -256.904    -629.884     736.271
  N     -256.691    -628.476     734.465
  C     -255.993    -628.253     733.334
  C     -255.034    -629.049     732.747
  C     -254.705    -630.305     733.403
  O     -253.899    -631.135     733.001
  N     -254.523    -628.484     731.606
  C     -255.163    -627.339     731.513
  N     -256.071    -627.147     732.537
  O     -253.604    -625.665     728.181
  O     -255.935    -625.082     727.438
  H     -256.786    -623.693     734.936
  H     -255.908    -626.061     727.464
  H     -255.219    -631.326     735.085
  H     -255.009    -626.605     730.721
  H     -257.871    -626.366     733.130
  H     -255.399    -625.092     733.913
  H     -256.600    -630.655     736.846
  H     -255.104    -624.016     731.918
  H     -257.416    -629.137     736.743
  H     -258.086    -623.645     731.375
  H     -257.120    -624.299     729.064
  H     -256.643    -622.715     729.659
  P     -254.680    -621.773     733.398
  C     -254.570    -619.972     731.574
  O     -253.918    -621.074     732.170
  O     -253.716    -623.005     733.756
  O     -254.894    -620.895     734.592
  H     -252.994    -622.705     734.349
  H     -254.130    -619.785     730.592
  H     -254.443    -619.089     732.206
  H     -255.645    -620.175     731.451
  H     -252.962    -621.717     726.941
  H     -252.209    -623.277     727.169
  H     -252.728    -622.347     728.554

 3  4  5  6  7  8  9  10  11  12  23  26  30  31 0
 6-311+G(2d,p)
 ****
 33  35  36  37  38 0
 6-311+G(2d,p)
 ****
 1  2  13  14  15  16  17  18  19  20  21  22  24  25 0
 3-21G
 ****
 27  28  29  32  34  39  40  41  42  43  44  45  46  47  48  49 0
 3-21G
 ****


