%nproc=1
%NoSave
%Mem=1900MB
#P OB98/GEN NMR

erre ene a

0 1
  C      -75.570     194.330     356.815
  O      -76.859     194.447     356.261
  P      -77.973     193.320     356.535
  C      -80.511     193.122     356.156
  O      -79.387     194.000     356.209
  C      -81.778     193.869     356.561
  O      -81.840     194.056     358.001
  C      -81.880     195.276     355.993
  O      -82.017     195.406     354.594
  C      -82.982     195.867     356.853
  O      -84.277     195.479     356.383
  C      -82.686     195.210     358.226
  N      -82.077     196.156     359.162
  C      -82.962     196.946     359.893
  O      -84.185     196.877     359.785
  N      -82.383     197.852     360.743
  C      -81.047     198.076     360.896
  O      -80.602     198.936     361.643
  C      -80.164     197.222     360.085
  C      -80.711     196.319     359.266
  O      -77.888     192.662     357.868
  O      -77.786     192.315     355.301
  H      -84.253     194.518     356.219
  H      -77.923     192.721     354.425
  H      -83.011     198.441     361.273
  H      -79.095     197.366     360.189
  H      -80.079     195.678     358.658
  H      -83.617     194.837     358.676
  H      -82.959     196.962     356.857
  H      -80.956     195.813     356.248
  H      -82.640     193.256     356.278
  H      -80.347     192.292     356.859
  H      -80.601     192.700     355.150
  P      -81.706     196.761     353.799
  C      -81.178     197.375     351.336
  O      -81.168     196.384     352.339
  O      -80.973     197.827     354.553
  O      -83.190     197.285     353.469
  H      -83.180     198.260     353.452
  H      -80.811     196.932     350.403
  H      -80.503     198.203     351.610
  H      -82.191     197.751     351.177
  H      -74.978     195.171     356.521
  H      -75.111     193.430     356.463
  H      -75.642     194.300     357.882

 3  4  5  6  7  8  9  10  11  12  13  23  28  29  30  31  32 0
 6-311+G(2d,p)
 ****
 33  34 0
 6-311+G(2d,p)
 ****
 1  2  14  15  16  17  18  19  20  21  22  24  25  26  27 0
 3-21G
 ****
 35  36  37  38  39  40  41  42  43  44  45 0
 3-21G
 ****


