%nproc=1
%NoSave
%Mem=1900MB
#P OB98/GEN NMR

erre ene a

0 1
  C     -103.652    -108.753     326.537
  O     -104.300    -109.933     326.120
  H     -103.528    -108.098     325.671
  H     -102.664    -108.998     326.936
  H     -104.233    -108.224     327.297
  P     -105.008    -110.852     327.220
  C     -103.538    -112.945     327.569
  O     -103.864    -111.639     328.029
  C     -103.203    -113.884     328.727
  O     -102.416    -113.179     329.712
  C     -104.453    -114.399     329.447
  O     -105.021    -115.566     328.877
  C     -103.917    -114.678     330.848
  O     -103.387    -116.010     330.948
  C     -102.800    -113.642     331.014
  N     -102.932    -111.604     335.701
  C     -102.588    -112.890     335.325
  N     -102.278    -113.738     336.329
  N     -102.571    -113.294     334.083
  C     -102.999    -112.363     333.199
  C     -103.384    -111.066     333.457
  C     -103.330    -110.604     334.828
  O     -103.609    -109.473     335.211
  N     -103.798    -110.426     332.314
  C     -103.745    -111.362     331.387
  N     -103.191    -112.529     331.861
  O     -105.681    -112.022     326.351
  O     -106.038    -110.167     328.068
  H     -102.589    -116.061     330.386
  H     -106.495    -112.328     326.792
  H     -102.898    -111.343     336.671
  H     -104.049    -111.237     330.355
  H     -101.907    -114.089     331.469
  H     -104.714    -114.600     331.594
  H     -102.359    -113.505     337.304
  H     -105.207    -113.610     329.522
  H     -102.206    -114.735     336.112
  H     -102.585    -114.711     328.355
  H     -102.672    -112.836     326.914
  H     -104.356    -113.352     326.969
  P     -106.606    -115.741     328.775
  C     -106.649    -117.293     330.891
  O     -107.159    -116.169     330.208
  O     -106.766    -117.071     327.903
  O     -107.343    -114.587     328.177
  H     -106.948    -116.852     326.969
  H     -107.155    -117.401     331.828
  H     -105.602    -117.160     331.065
  H     -106.804    -118.171     330.299

 6  7  8  9  10  11  12  13  14  15  26  29  33  34 0
 6-311+G(2d,p)
 ****
 36  38  39  40  41 0
 6-311+G(2d,p)
 ****
 1  2  3  4  5  16  17  18  19  20  21  22  23  24  25 0
 3-21G
 ****
 27  28  30  31  32  35  37  42  43  44  45  46  47 0
 3-21G
 ****
 48  49 0
 3-21G
 ****


