%nproc=1
%NoSave
%Mem=1900MB
#P OB98/GEN NMR

erre ene a

0 1
  C      551.487     567.788     880.478
  O      551.787     568.525     879.314
  H      550.894     568.415     881.151
  H      552.417     567.512     880.988
  H      550.913     566.888     880.248
  P      552.395     567.755     878.041
  C      554.932     567.719     878.494
  O      553.711     566.989     878.556
  C      556.126     566.769     878.296
  O      556.509     566.234     879.601
  C      555.825     565.571     877.373
  O      557.049     565.229     876.708
  C      555.439     564.499     878.375
  O      555.509     563.207     877.795
  C      556.427     564.787     879.504
  N      556.029     564.180     880.771
  C      556.775     563.094     881.200
  O      557.728     562.623     880.561
  N      556.401     562.527     882.385
  C      555.315     562.893     883.129
  O      554.998     562.319     884.167
  C      554.526     564.019     882.600
  C      554.915     564.606     881.461
  O      552.596     568.575     876.817
  O      551.372     566.540     877.787
  H      556.433     563.035     877.503
  H      551.355     566.315     876.843
  H      556.940     561.739     882.711
  H      553.653     564.327     883.168
  H      554.354     565.449     881.055
  H      557.428     564.417     879.255
  H      554.415     564.646     878.722
  H      555.042     565.781     876.641
  H      556.983     567.357     877.927
  H      555.055     568.273     879.431
  H      554.894     568.435     877.666
  P      557.462     565.836     875.286
  C      557.388     563.694     873.841
  O      556.768     564.942     874.129
  O      558.919     566.031     875.093
  O      556.675     567.226     875.187
  H      557.164     567.838     874.621
  H      556.844     563.196     873.065
  H      557.391     563.086     874.721
  H      558.395     563.862     873.520

 6  7  8  9  10  11  12  13  14  15  16  26  31  32  33  34  35 0
 6-311+G(2d,p)
 ****
 36  37 0
 6-311+G(2d,p)
 ****
 1  2  3  4  5  17  18  19  20  21  22  23  24  25 0
 3-21G
 ****
 27  28  29  30  38  39  40  41  42  43  44  45 0
 3-21G
 ****


