%nproc=1
%NoSave
%Mem=1900MB
#P OB98/GEN NMR

erre ene a

0 1
  C     -154.034      48.382    -244.318
  O     -155.277      48.532    -245.016
  P     -156.422      47.445    -244.760
  C     -157.351      46.880    -247.124
  O     -157.525      47.601    -245.912
  C     -157.429      47.828    -248.322
  O     -156.352      48.793    -248.312
  C     -157.342      47.121    -249.669
  O     -158.601      46.598    -250.070
  C     -156.945      48.272    -250.578
  O     -158.108      49.056    -250.912
  C     -155.992      49.078    -249.687
  N     -152.092      49.513    -252.879
  C     -153.383      49.995    -252.979
  N     -153.674      50.706    -254.090
  N     -154.304      49.798    -252.072
  C     -153.864      49.090    -251.008
  C     -152.614      48.555    -250.795
  C     -151.608      48.764    -251.812
  O     -150.455      48.348    -251.784
  N     -152.553      47.889    -249.599
  C     -153.755      48.036    -249.078
  N     -154.593      48.743    -249.904
  O     -157.176      48.021    -243.469
  O     -155.914      46.059    -244.530
  H     -157.824      49.709    -251.579
  H     -157.577      47.287    -242.965
  H     -151.425      49.685    -253.611
  H     -154.065      47.653    -248.114
  H     -156.092      50.160    -249.837
  H     -156.516      47.928    -251.524
  H     -153.000      50.935    -254.804
  H     -156.557      46.355    -249.664
  H     -154.605      51.097    -254.165
  H     -158.382      48.373    -248.264
  H     -158.114      46.101    -247.215
  H     -156.394      46.355    -247.088
  P     -158.694      45.027    -250.380
  C     -160.185      45.355    -252.480
  O     -160.062      44.814    -251.181
  O     -158.983      44.397    -248.938
  O     -157.473      44.442    -251.006
  H     -158.590      43.507    -248.879
  H     -161.106      44.980    -252.931
  H     -159.339      45.057    -253.107
  H     -160.239      46.446    -252.429
  H     -153.374      49.179    -244.590
  H     -153.589      47.445    -244.580
  H     -154.212      48.411    -243.263

 3  4  5  6  7  8  9  10  11  12  23  26  30  31 0
 6-311+G(2d,p)
 ****
 33  35  36  37  38 0
 6-311+G(2d,p)
 ****
 1  2  13  14  15  16  17  18  19  20  21  22  24  25 0
 3-21G
 ****
 27  28  29  32  34  39  40  41  42  43  44  45  46  47  48  49 0
 3-21G
 ****


