%nproc=1
%NoSave
%Mem=1900MB
#P OB98/GEN NMR

erre ene a

0 1
  C     -207.634     442.676    -102.788
  O     -207.143     443.408    -101.657
  P     -207.935     444.653    -101.028
  C     -210.109     443.440    -100.359
  O     -208.940     444.108     -99.901
  C     -211.177     443.353     -99.265
  O     -210.680     442.631     -98.122
  C     -211.656     444.706     -98.747
  O     -212.585     445.284     -99.648
  C     -212.248     444.308     -97.389
  O     -213.574     443.771     -97.552
  C     -211.270     443.205     -96.937
  N     -210.029     443.966     -92.034
  C     -211.125     443.431     -92.613
  N     -211.388     443.265     -93.931
  C     -210.352     443.706     -94.679
  C     -209.171     444.284     -94.231
  C     -209.029     444.413     -92.835
  N     -207.917     444.970     -92.244
  N     -208.364     444.635     -95.281
  C     -209.034     444.256     -96.351
  N     -210.238     443.686     -96.037
  O     -208.582     445.539    -102.045
  O     -206.830     445.458    -100.194
  H     -213.940     443.647     -96.653
  H     -207.073     446.399    -100.152
  H     -211.900     443.090     -91.931
  H     -208.693     444.359     -97.377
  H     -211.801     442.391     -96.426
  H     -212.312     445.146     -96.695
  H     -210.806     445.369     -98.593
  H     -212.023     442.773     -99.673
  H     -209.829     442.428    -100.677
  H     -207.904     445.059     -91.244
  H     -207.185     445.346     -92.831
  H     -210.504     443.982    -101.223
  P     -212.606     446.870     -99.855
  C     -211.700     446.841    -102.260
  O     -212.801     447.145    -101.419
  O     -211.483     447.624     -99.220
  O     -214.021     447.317     -99.247
  H     -213.960     448.225     -98.897
  H     -210.966     447.647    -102.202
  H     -212.052     446.738    -103.285
  H     -211.226     445.901    -101.948
  H     -206.946     441.893    -103.032
  H     -207.734     443.336    -103.624
  H     -208.588     442.252    -102.552

 3  4  5  6  7  8  9  10  11  12  22  25  29  30  31  32 0
 6-311+G(2d,p)
 ****
 33  36  37 0
 6-311+G(2d,p)
 ****
 1  2  13  14  15  16  17  18  19  20  21  23  24  26 0
 3-21G
 ****
 27  28  34  35  38  39  40  41  42  43  44  45  46  47  48 0
 3-21G
 ****


