%nproc=1
%NoSave
%Mem=1900MB
#P OB98/GEN NMR

erre ene a

0 1
  C      858.260      50.171     155.984
  O      857.247      51.180     155.959
  P      857.580      52.582     156.673
  C      857.992      54.954     155.638
  O      858.100      53.542     155.501
  C      858.155      55.631     154.278
  O      859.440      55.286     153.688
  C      857.120      55.215     153.249
  O      855.859      55.822     153.506
  C      857.791      55.668     151.957
  O      857.608      57.080     151.763
  C      859.280      55.372     152.253
  N      859.764      54.167     151.592
  C      860.442      54.367     150.388
  O      860.617      55.479     149.890
  N      860.907      53.241     149.771
  C      860.737      51.955     150.206
  O      861.188      50.985     149.606
  C      859.969      51.801     151.451
  C      859.520      52.894     152.079
  O      858.896      52.203     157.496
  O      856.444      53.103     157.491
  H      859.468      51.561     157.029
  H      858.008      57.520     152.541
  H      861.414      53.368     148.902
  H      859.787      50.795     151.814
  H      858.956      52.805     153.001
  H      859.905      56.216     151.930
  H      857.396      55.162     151.074
  H      857.006      54.120     153.244
  H      858.127      56.717     154.430
  H      858.765      55.328     156.322
  H      857.017      55.192     156.082
  P      854.834      54.998     154.433
  C      854.109      55.309     156.923
  O      855.107      55.468     155.939
  O      855.465      53.529     154.359
  O      853.410      55.085     153.971
  H      856.430      53.526     154.457
  H      854.575      55.351     157.910
  H      853.586      54.355     156.821
  H      853.380      56.129     156.843
  H      857.906      49.298     155.476
  H      858.492      49.924     156.999
  H      859.139      50.536     155.495

 3  4  5  6  7  8  9  10  11  12  13  24  28  29  30  31  32 0
 6-311+G(2d,p)
 ****
 33  34 0
 6-311+G(2d,p)
 ****
 1  2  14  15  16  17  18  19  20  21  22  23  25  26  27 0
 3-21G
 ****
 35  36  37  38  39  40  41  42  43  44  45 0
 3-21G
 ****


