%nproc=1
%NoSave
%Mem=1900MB
#P OB98/GEN NMR

erre ene a

0 1
  C     -103.855     141.566      -8.232
  O     -102.947     142.183      -7.341
  H     -103.370     141.454      -9.205
  H     -104.747     142.188      -8.349
  H     -104.136     140.577      -7.862
  P     -103.469     142.422      -5.844
  C     -102.017     140.454      -4.940
  O     -103.313     141.014      -5.091
  C     -102.102     139.088      -4.249
  O     -102.663     138.124      -5.189
  C     -100.742     138.531      -3.802
  O     -100.964     137.691      -2.657
  C     -100.352     137.674      -4.995
  O      -99.288     136.809      -4.670
  C     -101.708     137.047      -5.307
  N      -99.710     133.550      -8.456
  C      -99.449     133.851      -7.166
  N     -100.031     134.786      -6.390
  C     -100.991     135.438      -7.068
  C     -101.375     135.237      -8.384
  C     -100.683     134.241      -9.094
  N     -100.940     133.937     -10.411
  N     -102.397     136.101      -8.732
  C     -102.624     136.810      -7.644
  N     -101.794     136.449      -6.619
  O     -105.050     142.583      -6.026
  O     -102.867     143.585      -5.131
  H      -99.445     136.372      -3.807
  H     -105.283     143.528      -6.083
  H      -98.667     133.262      -6.694
  H     -103.363     137.596      -7.547
  H     -101.981     136.279      -4.574
  H     -100.009     138.296      -5.827
  H     -100.016     139.308      -3.548
  H     -102.803     139.155      -3.409
  H     -101.411     141.138      -4.336
  H     -101.554     140.337      -5.924
  H     -100.388     133.220     -10.854
  H     -101.651     134.457     -10.905
  P     -101.028     138.359      -1.196
  C     -103.519     137.667      -0.798
  O     -102.557     138.709      -0.858
  O     -100.408     139.814      -1.469
  O     -100.264     137.652      -0.126
  H      -99.989     140.148      -0.653
  H     -104.478     138.080      -0.563
  H     -103.238     136.965      -0.041
  H     -103.567     137.171      -1.745

 6  7  8  9  10  11  12  13  14  15  25  28  32  33  34  35 0
 6-311+G(2d,p)
 ****
 36  37  40 0
 6-311+G(2d,p)
 ****
 1  2  3  4  5  16  17  18  19  20  21  22  23  24 0
 3-21G
 ****
 26  27  29  30  31  38  39 41  42  43  44  45  46  47  48 0
 3-21G
 ****


