%nproc=1
%NoSave
%Mem=1900MB
#P OB98/GEN NMR

erre ene a

0 1
  C     -421.685    -548.392    -316.565
  O     -422.035    -549.705    -316.944
  H     -422.601    -547.805    -316.446
  H     -421.062    -547.923    -317.333
  H     -421.149    -548.407    -315.611
  P     -420.825    -550.721    -317.225
  C     -421.353    -553.077    -316.328
  O     -421.535    -552.152    -317.395
  C     -422.365    -552.805    -315.214
  O     -423.696    -552.749    -315.797
  C     -422.382    -553.884    -314.123
  O     -422.627    -553.264    -312.858
  C     -423.575    -554.738    -314.506
  O     -424.100    -555.464    -313.392
  C     -424.523    -553.684    -315.084
  N     -429.320    -555.365    -315.356
  C     -428.657    -554.669    -314.407
  N     -427.378    -554.239    -314.428
  C     -426.794    -554.552    -315.598
  C     -427.337    -555.252    -316.659
  C     -428.669    -555.685    -316.500
  N     -429.343    -556.425    -317.443
  N     -426.407    -555.415    -317.661
  C     -425.318    -554.801    -317.223
  N     -425.503    -554.284    -315.972
  O     -419.708    -550.677    -316.238
  O     -420.424    -550.353    -318.731
  H     -424.190    -554.847    -312.636
  H     -421.214    -550.280    -319.301
  H     -429.226    -554.433    -313.514
  H     -424.377    -554.724    -317.762
  H     -425.076    -553.142    -314.305
  H     -423.291    -555.466    -315.273
  H     -421.462    -554.461    -314.081
  H     -422.158    -551.811    -314.789
  H     -420.337    -553.005    -315.931
  H     -430.296    -556.686    -317.248
  H     -428.878    -556.663    -318.304
  H     -421.497    -554.087    -316.732
  P     -421.394    -552.989    -311.878
  C     -422.474    -550.962    -310.703
  O     -421.948    -552.272    -310.544
  O     -420.206    -552.333    -312.494
  O     -421.031    -554.457    -311.345
  H     -420.051    -554.557    -311.321
  H     -422.808    -550.594    -309.755
  H     -423.298    -550.989    -311.385
  H     -421.713    -550.316    -311.088

 6  7  8  9  10  11  12  13  14  15  25  28  32  33  34  35 0
 6-311+G(2d,p)
 ****
 36  39  40 0
 6-311+G(2d,p)
 ****
 1  2  3  4  5  16  17  18  19  20  21  22  23  24 0
 3-21G
 ****
 26  27  29  30  31  37  38  41  42  43  44  45  46  47 0
 3-21G
 ****
 48 0
 3-21G
 ****


