%nproc=1
%NoSave
%Mem=1900MB
#P OB98/GEN NMR

erre ene a

0 1
  C     -535.809     530.993    -225.408
  O     -536.091     529.610    -225.416
  H     -536.752     531.545    -225.414
  H     -535.235     531.270    -226.295
  H     -535.248     531.254    -224.505
  P     -534.837     528.612    -225.514
  C     -535.289     527.680    -223.132
  O     -534.364     528.305    -224.012
  C     -535.296     528.423    -221.800
  O     -535.766     529.780    -222.002
  C     -536.237     527.826    -220.764
  O     -535.692     526.687    -220.114
  C     -536.404     528.999    -219.812
  O     -535.339     529.066    -218.853
  C     -536.371     530.208    -220.761
  N     -537.698     530.771    -220.969
  C     -538.328     531.279    -219.830
  O     -537.818     531.254    -218.715
  N     -539.595     531.767    -220.024
  C     -540.289     531.759    -221.190
  O     -541.442     532.165    -221.276
  C     -539.582     531.204    -222.355
  C     -538.340     530.737    -222.198
  O     -533.675     529.546    -226.102
  O     -535.062     527.399    -226.360
  H     -533.509     529.318    -227.034
  H     -535.507     528.339    -218.213
  H     -540.069     532.137    -219.207
  H     -540.106     531.181    -223.305
  H     -537.802     530.315    -223.030
  H     -535.725     530.996    -220.354
  H     -537.333     528.927    -219.252
  H     -537.206     527.599    -221.219
  H     -534.268     528.467    -221.412
  H     -534.987     526.645    -222.953
  H     -536.279     527.680    -223.590
  P     -535.831     525.265    -220.861
  C     -533.260     524.723    -220.712
  O     -534.397     524.983    -221.523
  O     -536.770     525.673    -222.087
  O     -536.362     524.191    -219.976
  H     -536.665     526.615    -222.337
  H     -532.406     524.561    -221.336
  H     -533.438     523.851    -220.118
  H     -533.080     525.561    -220.071

 6  7  8  9  10  11  12  13  14  15  16  27  31  32  33  34  35 0
 6-311+G(2d,p)
 ****
 36  37 0
 6-311+G(2d,p)
 ****
 1  2  3  4  5  17  18  19  20  21  22  23  24  25 0
 3-21G
 ****
 26  28  29  30  38  39  40  41  42  43  44  45 0
 3-21G
 ****


