%nproc=1
%NoSave
%Mem=1900MB
#P OB98/GEN NMR

erre ene a

0 1
  C     -266.315    -715.372      33.883
  O     -265.703    -714.583      32.868
  P     -264.235    -713.995      33.163
  C     -264.938    -711.500      33.441
  O     -264.436    -712.673      34.060
  C     -263.941    -710.347      33.605
  O     -264.386    -709.228      32.789
  C     -263.791    -709.829      35.039
  O     -262.430    -709.385      35.186
  C     -264.724    -708.625      35.076
  O     -264.397    -707.705      36.118
  C     -264.525    -708.077      33.658
  N     -266.239    -703.364      32.997
  C     -265.048    -703.807      33.563
  N     -264.174    -702.848      33.943
  N     -264.753    -705.065      33.729
  C     -265.720    -705.912      33.281
  C     -266.950    -705.591      32.750
  C     -267.250    -704.195      32.535
  O     -268.252    -703.757      31.964
  N     -267.689    -706.717      32.501
  C     -266.882    -707.710      32.807
  N     -265.656    -707.274      33.242
  O     -263.794    -713.424      31.735
  O     -263.244    -714.969      33.723
  H     -264.492    -708.180      36.970
  H     -263.275    -714.081      31.234
  H     -266.402    -702.376      32.879
  H     -267.125    -708.758      32.730
  H     -263.624    -707.462      33.567
  H     -265.753    -708.964      35.228
  H     -264.326    -701.865      33.817
  H     -264.027    -710.570      35.807
  H     -263.288    -703.154      34.325
  H     -262.966    -710.671      33.215
  H     -265.878    -711.216      33.927
  H     -265.134    -711.685      32.383
  P     -261.629    -709.839      36.506
  C     -261.164    -707.494      37.505
  O     -261.862    -708.716      37.621
  O     -260.099    -709.610      36.073
  O     -261.857    -711.253      36.922
  H     -259.529    -710.272      36.527
  H     -261.701    -706.720      38.067
  H     -261.073    -707.170      36.462
  H     -260.156    -707.599      37.940
  H     -267.280    -715.693      33.552
  H     -266.419    -714.789      34.774
  H     -265.705    -716.227      34.086

 3  4  5  6  7  8  9  10  11  12  23  26  30  31 0
 6-311+G(2d,p)
 ****
 33  35  36  37  38 0
 6-311+G(2d,p)
 ****
 1  2  13  14  15  16  17  18  19  20  21  22  24  25 0
 3-21G
 ****
 27  28  29  32  34  39  40  41  42  43  44  45  46  47  48  49 0
 3-21G
 ****


