%nproc=1
%NoSave
%Mem=1900MB
#P OB98/GEN NMR

erre ene a

0 1
  C     -463.387    -162.629      31.101
  O     -462.834    -162.756      32.413
  P     -463.261    -164.046      33.257
  C     -460.946    -165.202      33.005
  O     -461.940    -164.692      33.889
  C     -459.587    -165.241      33.702
  O     -459.020    -163.920      33.852
  C     -459.649    -165.813      35.111
  O     -459.799    -167.218      35.083
  C     -458.323    -165.324      35.680
  O     -457.246    -166.166      35.225
  C     -458.193    -163.931      35.035
  N     -456.909    -159.361      36.948
  C     -456.273    -160.192      36.087
  N     -456.684    -161.386      35.627
  C     -457.882    -161.715      36.144
  C     -458.643    -160.972      37.031
  C     -458.108    -159.742      37.440
  N     -458.744    -158.907      38.335
  N     -459.815    -161.636      37.336
  C     -459.749    -162.767      36.665
  N     -458.606    -162.857      35.921
  O     -463.700    -165.096      32.133
  O     -464.364    -163.786      34.227
  H     -456.413    -165.778      35.564
  H     -464.668    -165.209      32.146
  H     -455.321    -159.840      35.716
  H     -460.496    -163.548      36.689
  H     -457.167    -163.714      34.724
  H     -458.292    -165.318      36.771
  H     -460.481    -165.362      35.670
  H     -458.909    -165.845      33.087
  H     -460.881    -164.574      32.107
  H     -458.253    -158.077      38.637
  H     -459.595    -159.217      38.776
  H     -461.250    -166.194      32.665
  P     -460.263    -167.950      36.433
  C     -462.245    -168.960      35.156
  O     -461.086    -169.228      35.921
  O     -461.416    -166.979      36.952
  O     -459.166    -168.229      37.407
  H     -462.020    -166.716      36.229
  H     -462.685    -169.913      34.839
  H     -461.990    -168.374      34.274
  H     -462.978    -168.415      35.766
  H     -463.025    -161.730      30.647
  H     -464.454    -162.591      31.166
  H     -463.096    -163.471      30.508

 3  4  5  6  7  8  9  10  11  12  22  25  29  30  31  32 0
 6-311+G(2d,p)
 ****
 33  36  37 0
 6-311+G(2d,p)
 ****
 1  2  13  14  15  16  17  18  19  20  21  23  24  26 0
 3-21G
 ****
 27  28  34  35  38  39  40  41  42  43  44  45  46  47  48 0
 3-21G
 ****


