%nproc=1
%NoSave
%Mem=1900MB
#P OB98/GEN NMR

erre ene a

0 1
  C       66.202      72.135     -30.130
  O       66.359      70.767     -30.453
  H       66.942      72.738     -30.666
  H       65.202      72.458     -30.435
  H       66.310      72.284     -29.051
  P       67.783      70.104     -30.120
  C       68.764      70.762     -32.440
  O       68.841      70.902     -31.028
  C       70.170      70.600     -33.008
  O       71.012      71.692     -32.568
  C       70.873      69.324     -32.558
  O       70.495      68.194     -33.323
  C       72.324      69.699     -32.806
  O       72.614      69.611     -34.213
  C       72.350      71.165     -32.346
  N       76.137      72.190     -29.053
  C       76.097      72.163     -30.404
  N       75.044      71.901     -31.207
  C       73.942      71.662     -30.480
  C       73.826      71.662     -29.098
  C       74.995      71.938     -28.369
  N       75.046      71.938     -26.990
  N       72.534      71.349     -28.718
  C       71.882      71.182     -29.852
  N       72.698      71.328     -30.945
  O       67.712      68.670     -30.827
  O       68.143      70.026     -28.672
  H       71.902      70.085     -34.683
  H       68.431      68.095     -30.504
  H       77.037      72.374     -30.908
  H       70.828      70.946     -29.934
  H       73.049      71.779     -32.928
  H       73.026      69.037     -32.292
  H       70.729      69.144     -31.484
  H       70.108      70.650     -34.104
  H       68.295      71.657     -32.864
  H       75.956      72.000     -26.565
  H       74.242      71.608     -26.477
  H       68.155      69.885     -32.687
  P       70.415      66.779     -32.566
  C       72.997      66.583     -32.767
  O       71.860      66.529     -31.914
  O       70.368      65.728     -33.772
  O       69.250      66.630     -31.641
  H       69.841      64.941     -33.531
  H       73.882      66.398     -32.194
  H       73.060      67.552     -33.217
  H       72.905      65.840     -33.531

 6  7  8  9  10  11  12  13  14  15  25  28  32  33  34  35 0
 6-311+G(2d,p)
 ****
 36  39  40 0
 6-311+G(2d,p)
 ****
 1  2  3  4  5  16  17  18  19  20  21  22  23  24 0
 3-21G
 ****
 26  27  29  30  31  37  38  41  42  43  44  45  46  47 0
 3-21G
 ****
 48 0
 3-21G
 ****


