%nproc=1
%NoSave
%Mem=1900MB
#P OB98/GEN NMR

erre ene a

0 1
  C      224.472     164.373       1.404
  O      223.969     163.299       0.627
  P      224.655     163.039      -0.801
  C      223.159     164.802      -2.000
  O      224.473     164.381      -1.657
  C      223.212     166.109      -2.785
  O      223.731     167.169      -1.956
  C      224.115     166.075      -4.011
  O      223.504     165.369      -5.079
  C      224.306     167.567      -4.259
  O      223.153     168.107      -4.923
  C      224.398     168.119      -2.826
  N      228.524     171.149      -3.034
  C      227.309     171.234      -3.627
  N      226.273     170.378      -3.540
  C      226.575     169.345      -2.734
  C      227.774     169.113      -2.080
  C      228.782     170.077      -2.251
  N      230.016     169.984      -1.646
  N      227.722     167.937      -1.364
  C      226.506     167.471      -1.572
  N      225.772     168.293      -2.382
  O      223.653     162.012      -1.505
  O      226.054     162.505      -0.739
  H      222.395     168.011      -4.312
  H      224.138     161.385      -2.076
  H      227.153     172.107      -4.254
  H      226.115     166.552      -1.157
  H      223.892     169.083      -2.714
  H      225.179     167.790      -4.880
  H      225.078     165.611      -3.764
  H      222.185     166.371      -3.076
  H      222.578     164.963      -1.085
  H      230.729     170.637      -1.939
  H      230.256     169.117      -1.180
  H      222.675     164.013      -2.581
  P      224.477     164.666      -6.145
  C      224.144     166.548      -7.864
  O      225.060     165.896      -7.002
  O      223.425     164.005      -7.155
  O      225.489     163.741      -5.562
  H      222.735     164.636      -7.427
  H      224.654     167.388      -8.342
  H      223.288     166.923      -7.296
  H      223.804     165.856      -8.641
  H      223.929     164.433       2.324
  H      224.358     165.289       0.863
  H      225.509     164.208       1.612

 3  4  5  6  7  8  9  10  11  12  22  25  29  30  31  32 0
 6-311+G(2d,p)
 ****
 33  36  37 0
 6-311+G(2d,p)
 ****
 1  2  13  14  15  16  17  18  19  20  21  23  24  26 0
 3-21G
 ****
 27  28  34  35  38  39  40  41  42  43  44  45  46  47  48 0
 3-21G
 ****


