%nproc=1
%NoSave
%Mem=1900MB
#P OB98/GEN NMR

erre ene a

0 1
  C       50.139     534.738    -156.166
  O       49.338     535.093    -157.281
  P       49.244     536.650    -157.663
  C       51.439     537.083    -158.982
  O       50.747     537.205    -157.747
  C       51.871     538.454    -159.503
  O       50.711     539.332    -159.534
  C       52.949     539.148    -158.655
  O       53.778     539.884    -159.562
  C       52.120     540.079    -157.788
  O       52.866     541.117    -157.177
  C       51.067     540.524    -158.797
  N       48.620     544.892    -157.766
  C       49.740     544.634    -158.477
  N       50.327     543.444    -158.716
  C       49.632     542.448    -158.141
  C       48.485     542.558    -157.374
  C       47.973     543.854    -157.190
  N       46.833     544.114    -156.457
  N       48.071     541.321    -156.927
  C       48.954     540.476    -157.416
  N       49.902     541.107    -158.174
  O       48.682     537.316    -156.324
  O       48.382     536.957    -158.847
  H       52.277     541.674    -156.630
  H       48.043     538.027    -156.525
  H       50.232     545.499    -158.914
  H       48.960     539.409    -157.244
  H       51.465     541.253    -159.513
  H       51.660     539.498    -156.979
  H       53.571     538.450    -158.088
  H       52.220     538.339    -160.537
  H       50.777     536.627    -159.725
  H       46.664     545.081    -156.221
  H       46.483     543.368    -155.869
  H       52.301     536.423    -158.851
  P       55.365     539.894    -159.327
  C       55.925     538.076    -161.054
  O       55.816     538.393    -159.681
  O       55.437     539.883    -157.728
  O       56.113     541.005    -159.978
  H       54.882     539.179    -157.349
  H       56.329     537.065    -161.148
  H       56.598     538.776    -161.554
  H       54.937     538.104    -161.522
  H       50.110     533.677    -156.029
  H       49.763     535.222    -155.289
  H       51.149     535.047    -156.339

 3  4  5  6  7  8  9  10  11  12  22  25  29  30  31  32 0
 6-311+G(2d,p)
 ****
 33  36  37 0
 6-311+G(2d,p)
 ****
 1  2  13  14  15  16  17  18  19  20  21  23  24  26 0
 3-21G
 ****
 27  28  34  35  38  39  40  41  42  43  44  45  46  47  48 0
 3-21G
 ****


