%nproc=1
%NoSave
%Mem=1900MB
#P OB98/GEN NMR

erre ene a

0 1
  C      679.516       1.577      -2.476
  O      680.797       1.127      -2.093
  H      678.995       1.941      -1.589
  H      678.934       0.762      -2.916
  H      679.600       2.401      -3.190
  P      681.728       0.436      -3.201
  C      683.248       2.526      -3.319
  O      682.418       1.622      -4.032
  C      684.671       2.525      -3.891
  O      684.619       2.949      -5.281
  C      685.634       3.489      -3.161
  O      686.950       2.928      -3.263
  C      685.516       4.736      -4.015
  O      686.546       5.646      -3.739
  C      685.465       4.117      -5.414
  N      684.971       5.038      -6.425
  C      685.936       5.837      -7.052
  O      687.124       5.744      -6.737
  N      685.527       6.739      -8.005
  C      684.263       6.882      -8.249
  N      683.919       7.802      -9.193
  C      683.209       6.098      -7.562
  C      683.634       5.202      -6.676
  O      681.070      -0.616      -4.033
  O      682.948      -0.172      -2.357
  H      686.587       5.854      -2.781
  H      682.850      -1.141      -2.289
  H      682.166       6.270      -7.796
  H      682.938       4.585      -6.119
  H      686.464       3.760      -5.719
  H      684.569       5.256      -3.805
  H      685.366       3.638      -2.110
  H      685.055       1.504      -3.884
  H      684.671       8.319      -9.629
  H      683.266       2.203      -2.272
  H      682.969       8.016      -9.449
  H      682.833       3.541      -3.367
  P      687.995       2.935      -2.044
  C      688.194       0.410      -1.551
  O      687.713       1.676      -1.100
  O      688.073       4.239      -1.319
  O      689.415       2.591      -2.718
  H      690.123       3.026      -2.210
  H      687.942      -0.343      -0.834
  H      689.257       0.452      -1.665
  H      687.743       0.172      -2.492

 6  7  8  9  10  11  12  13  14  15  16  26  30  31  32  33  35 0
 6-311+G(2d,p)
 ****
 37  38 0
 6-311+G(2d,p)
 ****
 1  2  3  4  5  17  18  19  20  21  22  23  24  25 0
 3-21G
 ****
 27  28  29  34  36  39  40  41  42  43  44  45  46 0
 3-21G
 ****


