%nproc=1
%NoSave
%Mem=1900MB
#P OB98/GEN NMR

erre ene a

0 1
  C      777.156    -889.300    -302.018
  O      776.109    -890.050    -301.426
  P      776.373    -891.610    -301.134
  C      777.898    -891.560    -299.027
  O      777.815    -891.730    -300.426
  C      779.067    -892.370    -298.471
  O      778.678    -893.770    -298.429
  C      780.366    -892.280    -299.290
  O      781.456    -892.390    -298.358
  C      780.305    -893.520    -300.151
  O      781.586    -893.910    -300.632
  C      779.669    -894.500    -299.196
  N      780.336    -899.080    -301.256
  C      781.255    -898.200    -300.715
  N      782.510    -898.630    -300.653
  N      780.955    -897.020    -300.252
  C      779.640    -896.720    -300.371
  C      778.627    -897.490    -300.914
  C      778.970    -898.800    -301.383
  O      778.164    -899.630    -301.790
  N      777.444    -896.800    -300.920
  C      777.710    -895.680    -300.300
  N      779.010    -895.600    -299.908
  O      776.636    -892.200    -302.604
  O      775.275    -892.340    -300.402
  H      781.484    -894.730    -301.151
  H      775.808    -892.560    -302.979
  H      780.605    -900.000    -301.575
  H      776.997    -894.880    -300.103
  H      780.383    -894.950    -298.501
  H      779.657    -893.340    -301.023
  H      782.827    -899.570    -300.966
  H      780.452    -891.350    -299.862
  H      783.217    -898.040    -300.241
  H      779.239    -892.050    -297.435
  H      776.969    -891.930    -298.570
  H      777.996    -890.480    -298.775
  P      782.911    -891.930    -298.847
  C      782.486    -889.480    -298.107
  O      782.829    -890.360    -299.165
  O      783.032    -892.570    -300.311
  O      784.030    -892.380    -297.961
  H      783.957    -892.810    -300.490
  H      782.879    -888.470    -298.321
  H      782.903    -889.800    -297.148
  H      781.404    -889.450    -298.005
  H      776.838    -888.287    -302.151
  H      777.405    -889.724    -302.969
  H      778.016    -889.323    -301.381

 3  4  5  6  7  8  9  10  11  12  23  26  30  31 0
 6-311+G(2d,p)
 ****
 33  35  36  37  38 0
 6-311+G(2d,p)
 ****
 1  2  13  14  15  16  17  18  19  20  21  22  24  25 0
 3-21G
 ****
 27  28  29  32  34  39  40  41  42  43  44  45  46  47  48  49 0
 3-21G
 ****


