%nproc=1
%NoSave
%Mem=1900MB
#P OB98/GEN NMR

erre ene a

0 1
  C      263.615     -97.640     385.053
  O      264.024     -98.209     386.298
  P      263.715     -99.757     386.577
  C      261.387     -99.153     387.501
  O      262.607     -99.846     387.738
  C      260.303     -99.621     388.472
  O      259.988    -101.016     388.286
  C      260.704     -99.493     389.933
  O      260.660     -98.136     390.350
  C      259.693    -100.412     390.604
  O      258.437     -99.738     390.806
  C      259.532    -101.535     389.553
  N      260.223    -102.761     389.913
  C      259.888    -103.892     389.165
  O      259.027    -103.832     388.288
  N      260.535    -105.074     389.444
  C      261.423    -105.122     390.387
  N      262.031    -106.318     390.614
  C      261.793    -103.951     391.207
  C      261.156    -102.818     390.924
  O      264.914    -100.633     386.769
  O      262.886    -100.193     385.271
  H      257.887    -100.354     391.332
  H      263.051    -101.139     385.098
  H      262.546    -104.036     391.976
  H      261.363    -101.909     391.478
  H      258.466    -101.775     389.419
  H      260.039    -100.748     391.586
  H      261.714     -99.892     390.075
  H      259.393     -99.030     388.280
  H      261.752    -107.106     390.048
  H      261.063     -99.321     386.472
  H      262.770    -106.442     391.292
  H      261.568     -98.075     387.602
  P      262.056     -97.383     390.573
  C      262.926     -99.142     392.268
  O      262.605     -97.786     392.022
  O      261.611     -95.855     390.761
  O      263.032     -97.526     389.451
  H      262.295     -95.269     390.387
  H      263.565     -99.199     393.154
  H      263.461     -99.586     391.424
  H      262.012     -99.710     392.457
  H      263.893     -96.607     385.024
  H      262.553     -97.726     384.953
  H      264.092     -98.160     384.249

 3  4  5  6  7  8  9  10  11  12  13  23  27  28  29  30  32 0
 6-311+G(2d,p)
 ****
 34  35 0
 6-311+G(2d,p)
 ****
 1  2  14  15  16  17  18  19  20  21  22  24  25  26 0
 3-21G
 ****
 31  33  36  37  38  39  40  41  42  43  44  45  46 0
 3-21G
 ****


