%nproc=1
%NoSave
%Mem=1900MB
#P OB98/GEN NMR

erre ene a

0 1
  C      305.924     152.473     728.214
  O      307.143     153.163     728.007
  P      307.929     152.878     726.621
  C      308.811     150.495     727.216
  O      309.107     151.850     726.969
  C      310.090     149.684     727.299
  O      310.837     149.808     726.052
  C      311.068     150.139     728.411
  O      310.679     149.581     729.646
  C      312.390     149.609     727.882
  O      312.547     148.208     728.174
  C      312.259     149.852     726.371
  N      313.730     152.491     722.313
  C      313.366     151.167     722.418
  N      313.340     150.440     721.266
  N      313.044     150.587     723.548
  C      313.124     151.404     724.618
  C      313.496     152.759     724.633
  C      313.789     153.383     723.376
  O      314.021     154.576     723.212
  N      313.470     153.264     725.911
  C      313.062     152.244     726.658
  N      312.815     151.109     725.921
  O      308.676     154.264     726.330
  O      307.040     152.454     725.485
  H      311.770     147.712     727.845
  H      308.168     154.802     725.691
  H      313.947     152.874     721.412
  H      312.914     152.294     727.721
  H      312.741     149.064     725.788
  H      313.248     150.122     728.346
  H      313.610     150.810     720.378
  H      311.092     151.230     728.475
  H      313.077     149.474     721.332
  H      309.847     148.621     727.442
  H      308.181     150.105     726.426
  H      308.245     150.406     728.178
  P      310.040     150.569     730.755
  C      312.102     152.105     731.068
  O      311.251     151.130     731.634
  O      309.272     149.575     731.730
  O      309.121     151.602     730.183
  H      308.442     149.997     732.063
  H      312.490     152.745     731.886
  H      311.583     152.758     730.347
  H      312.948     151.619     730.579
  H      305.513     152.752     729.162
  H      306.104     151.418     728.200
  H      305.234     152.727     727.437

 3  4  5  6  7  8  9  10  11  12  23  26  30  31 0
 6-311+G(2d,p)
 ****
 33  35  36  37  38 0
 6-311+G(2d,p)
 ****
 1  2  13  14  15  16  17  18  19  20  21  22  24  25 0
 3-21G
 ****
 27  28  29  32  34  39  40  41  42  43  44  45  46  47  48  49 0
 3-21G
 ****


