%nproc=1
%NoSave
%Mem=1900MB
#P OB98/GEN NMR

erre ene a

0 1
  C      406.879    -247.427    -491.848
  O      406.361    -248.556    -491.147
  P      405.555    -248.275    -489.787
  C      407.168    -249.399    -488.044
  O      406.624    -248.213    -488.592
  C      407.495    -249.222    -486.550
  O      406.276    -248.851    -485.856
  C      408.002    -250.469    -485.836
  O      408.653    -250.076    -484.625
  C      406.709    -251.185    -485.509
  O      406.890    -252.167    -484.491
  C      405.766    -250.016    -485.150
  N      404.354    -250.248    -485.516
  C      403.577    -251.045    -484.677
  O      403.986    -251.562    -483.637
  N      402.286    -251.269    -485.084
  C      401.702    -250.757    -486.202
  O      400.568    -251.061    -486.565
  C      402.522    -249.815    -486.977
  C      403.791    -249.622    -486.613
  O      404.763    -249.643    -489.533
  O      404.638    -247.099    -489.860
  H      407.373    -252.919    -484.913
  H      403.821    -249.530    -489.744
  H      401.730    -251.892    -484.520
  H      402.065    -249.332    -487.834
  H      404.416    -248.939    -487.190
  H      405.791    -249.803    -484.071
  H      406.336    -251.705    -486.398
  H      408.674    -251.094    -486.436
  H      408.207    -248.397    -486.432
  H      408.066    -249.683    -488.596
  H      406.451    -250.221    -488.163
  P      410.248    -250.208    -484.545
  C      410.390    -252.347    -483.123
  O      410.558    -251.779    -484.407
  O      410.937    -249.323    -483.563
  O      410.707    -249.898    -486.054
  H      411.648    -249.660    -486.068
  H      410.121    -253.396    -483.236
  H      409.604    -251.832    -482.556
  H      411.335    -252.279    -482.574
  H      407.389    -247.757    -492.729
  H      407.563    -246.898    -491.217
  H      406.074    -246.778    -492.124

 3  4  5  6  7  8  9  10  11  12  13  23  28  29  30  31  32 0
 6-311+G(2d,p)
 ****
 33  34 0
 6-311+G(2d,p)
 ****
 1  2  14  15  16  17  18  19  20  21  22  24  25  26  27 0
 3-21G
 ****
 35  36  37  38  39  40  41  42  43  44  45 0
 3-21G
 ****


