%nproc=1
%NoSave
%Mem=1900MB
#P OB98/GEN NMR

erre ene a

0 1
  C      -58.894    -457.123    -324.374
  O      -57.524    -457.232    -324.783
  P      -57.205    -457.240    -326.353
  C      -57.345    -459.837    -326.501
  O      -56.575    -458.664    -326.742
  C      -56.634    -461.065    -327.070
  O      -56.407    -460.948    -328.488
  C      -55.260    -461.316    -326.465
  O      -55.352    -461.990    -325.221
  C      -54.635    -462.224    -327.513
  O      -55.113    -463.572    -327.336
  C      -55.180    -461.633    -328.818
  N      -51.584    -461.069    -332.425
  C      -52.276    -462.151    -332.000
  N      -53.203    -462.226    -331.025
  C      -53.406    -461.021    -330.470
  C      -52.776    -459.833    -330.792
  C      -51.822    -459.881    -331.824
  N      -51.123    -458.776    -332.251
  N      -53.238    -458.800    -329.999
  C      -54.141    -459.358    -329.219
  N      -54.274    -460.699    -329.460
  O      -55.957    -456.245    -326.471
  O      -58.346    -456.790    -327.202
  H      -54.733    -464.105    -328.058
  H      -56.004    -455.756    -327.316
  H      -52.056    -463.084    -332.518
  H      -54.724    -458.834    -328.476
  H      -55.422    -462.409    -329.555
  H      -53.544    -462.261    -327.443
  H      -54.688    -460.380    -326.386
  H      -57.276    -461.941    -326.897
  H      -58.336    -459.735    -326.949
  H      -50.477    -458.884    -333.012
  H      -51.315    -457.880    -331.821
  H      -57.506    -459.941    -325.422
  P      -55.718    -461.108    -323.931
  C      -53.327    -460.095    -323.994
  O      -54.317    -460.758    -323.234
  O      -56.388    -462.174    -322.943
  O      -56.622    -459.957    -324.211
  H      -57.052    -461.734    -322.376
  H      -52.585    -459.670    -323.308
  H      -53.756    -459.289    -324.590
  H      -52.826    -460.813    -324.650
  H      -58.949    -457.131    -323.305
  H      -59.450    -457.949    -324.766
  H      -59.305    -456.208    -324.745

 3  4  5  6  7  8  9  10  11  12  22  25  29  30  31  32 0
 6-311+G(2d,p)
 ****
 33  36  37 0
 6-311+G(2d,p)
 ****
 1  2  13  14  15  16  17  18  19  20  21  23  24  26 0
 3-21G
 ****
 27  28  34  35  38  39  40  41  42  43  44  45  46  47  48 0
 3-21G
 ****


