%nproc=1
%NoSave
%Mem=1900MB
#P OB98/GEN NMR

erre ene a

0 1
  C     -324.148     -96.109      24.425
  O     -322.848     -95.658      24.817
  P     -321.747     -95.490      23.659
  C     -320.232     -94.887      25.710
  O     -320.333     -95.458      24.413
  C     -318.785     -94.945      26.196
  O     -318.332     -96.317      26.290
  C     -317.791     -94.253      25.274
  O     -317.881     -92.841      25.382
  C     -316.479     -94.852      25.763
  O     -316.034     -94.179      26.950
  C     -316.896     -96.300      26.102
  N     -316.477     -97.266      25.096
  C     -315.179     -97.752      25.225
  O     -314.408     -97.383      26.110
  N     -314.787     -98.666      24.285
  C     -315.539     -99.108      23.237
  O     -315.137     -99.937      22.430
  C     -316.884     -98.523      23.123
  C     -317.286     -97.642      24.042
  O     -321.997     -93.976      23.214
  O     -321.885     -96.503      22.574
  H     -322.249     -93.398      23.954
  H     -315.743     -93.287      26.670
  H     -313.854     -99.040      24.368
  H     -317.499     -98.831      22.287
  H     -318.274     -97.197      23.974
  H     -316.461     -96.601      27.063
  H     -315.679     -94.771      25.020
  H     -317.974     -94.556      24.235
  H     -318.744     -94.499      27.198
  H     -320.867     -95.438      26.410
  H     -320.596     -93.856      25.673
  P     -318.016     -92.015      24.010
  C     -320.125     -90.596      24.621
  O     -318.735     -90.633      24.381
  O     -319.151     -92.853      23.253
  O     -316.732     -91.893      23.255
  H     -319.891     -93.098      23.831
  H     -320.359     -89.688      25.182
  H     -320.454     -91.462      25.200
  H     -320.660     -90.570      23.667
  H     -324.777     -96.176      25.288
  H     -324.068     -97.072      23.966
  H     -324.571     -95.416      23.728

 3  4  5  6  7  8  9  10  11  12  13  24  28  29  30  31  32 0
 6-311+G(2d,p)
 ****
 33  34 0
 6-311+G(2d,p)
 ****
 1  2  14  15  16  17  18  19  20  21  22  23  25  26  27 0
 3-21G
 ****
 35  36  37  38  39  40  41  42  43  44  45 0
 3-21G
 ****


