%nproc=1
%NoSave
%Mem=1900MB
#P OB98/GEN NMR

erre ene a

0 1
  C      -47.133      72.826     -55.469
  O      -48.373      72.234     -55.809
  P      -49.317      72.923     -56.903
  C      -50.691      74.173     -55.079
  O      -49.897      74.265     -56.243
  C      -51.597      75.402     -54.928
  O      -50.755      76.581     -54.964
  C      -52.619      75.586     -56.045
  O      -53.637      76.480     -55.586
  C      -51.792      76.266     -57.116
  O      -52.600      76.944     -58.072
  C      -50.845      77.167     -56.286
  N      -49.506      77.257     -56.898
  C      -49.410      77.947     -58.105
  O      -50.363      78.533     -58.618
  N      -48.202      77.869     -58.743
  C      -47.130      77.142     -58.316
  O      -46.183      76.834     -59.033
  C      -47.212      76.640     -56.935
  C      -48.389      76.695     -56.306
  O      -50.580      71.942     -56.950
  O      -48.698      73.097     -58.248
  H      -52.804      77.832     -57.694
  H      -50.491      71.312     -57.689
  H      -48.176      78.247     -59.683
  H      -46.329      76.188     -56.503
  H      -48.494      76.285     -55.304
  H      -51.242      78.187     -56.192
  H      -51.211      75.505     -57.654
  H      -53.066      74.655     -56.403
  H      -52.092      75.371     -53.950
  H      -50.040      74.064     -54.205
  H      -51.316      73.273     -55.114
  P      -55.139      76.229     -56.091
  C      -54.993      77.965     -57.979
  O      -55.159      76.598     -57.652
  O      -56.217      76.850     -55.270
  O      -55.250      74.628     -56.108
  H      -56.189      74.364     -56.107
  H      -54.519      78.038     -58.962
  H      -54.368      78.481     -57.245
  H      -55.974      78.445     -58.023
  H      -46.645      72.230     -54.727
  H      -47.301      73.809     -55.082
  H      -46.516      72.887     -56.341

 3  4  5  6  7  8  9  10  11  12  13  23  28  29  30  31  32 0
 6-311+G(2d,p)
 ****
 33  34 0
 6-311+G(2d,p)
 ****
 1  2  14  15  16  17  18  19  20  21  22  24  25  26  27 0
 3-21G
 ****
 35  36  37  38  39  40  41  42  43  44  45 0
 3-21G
 ****


