%nproc=1
%NoSave
%Mem=1900MB
#P OB98/GEN NMR

erre ene a

0 1
  C      -46.701      12.012     -37.459
  O      -46.875      13.413     -37.479
  H      -47.358      11.564     -38.212
  H      -46.962      11.609     -36.475
  H      -45.664      11.758     -37.700
  P      -46.074      14.251     -36.365
  C      -44.693      15.886     -37.859
  O      -44.718      14.675     -37.120
  C      -43.374      16.006     -38.616
  O      -43.194      14.883     -39.513
  C      -43.260      17.245     -39.503
  O      -42.976      18.428     -38.777
  C      -42.098      16.829     -40.388
  O      -40.868      16.924     -39.648
  C      -42.466      15.358     -40.678
  N      -43.275      15.198     -41.890
  C      -42.647      15.501     -43.106
  O      -41.475      15.880     -43.136
  N      -43.377      15.393     -44.270
  C      -44.609      15.002     -44.226
  N      -45.281      14.918     -45.410
  C      -45.307      14.662     -42.970
  C      -44.590      14.781     -41.855
  O      -45.571      13.124     -35.345
  O      -46.820      15.376     -35.732
  H      -40.880      17.789     -39.195
  H      -44.940      13.518     -34.691
  H      -46.343      14.353     -42.981
  H      -45.032      14.546     -40.894
  H      -41.563      14.742     -40.775
  H      -41.987      17.454     -41.273
  H      -44.153      17.377     -40.124
  H      -42.556      15.968     -37.881
  H      -44.795      15.216     -46.246
  H      -44.801      16.718     -37.155
  H      -46.281      14.771     -45.468
  H      -45.523      15.907     -38.571
  P      -44.207      19.401     -38.433
  C      -43.803      19.208     -35.865
  O      -44.704      19.021     -36.953
  O      -45.378      18.843     -39.364
  O      -43.947      20.856     -38.667
  H      -45.962      19.568     -39.671
  H      -44.278      18.912     -34.953
  H      -43.527      20.240     -35.804
  H      -42.927      18.613     -36.021

 6  7  8  9  10  11  12  13  14  15  16  26  30  31  32  33  35 0
 6-311+G(2d,p)
 ****
 37  38 0
 6-311+G(2d,p)
 ****
 1  2  3  4  5  17  18  19  20  21  22  23  24  25 0
 3-21G
 ****
 27  28  29  34  36  39  40  41  42  43  44  45  46 0
 3-21G
 ****


