%nproc=1
%NoSave
%Mem=1900MB
#P OB98/GEN NMR

erre ene a

0 1
  C      439.535    -124.696     239.816
  O      440.793    -124.055     239.719
  H      439.426    -125.386     238.977
  H      438.732    -123.955     239.776
  H      439.471    -125.263     240.749
  P      441.152    -123.009     240.880
  C      443.615    -123.312     240.082
  O      442.598    -122.421     240.513
  C      444.694    -122.553     239.299
  O      444.249    -122.406     237.916
  C      444.968    -121.137     239.830
  O      446.334    -120.810     239.528
  C      444.041    -120.297     238.966
  O      444.363    -118.928     239.059
  C      444.255    -120.990     237.624
  N      442.185    -117.305     234.744
  C      443.247    -117.304     235.578
  N      443.746    -118.327     236.299
  C      443.041    -119.451     236.082
  C      441.942    -119.607     235.255
  C      441.506    -118.461     234.564
  N      440.421    -118.457     233.724
  N      441.481    -120.912     235.296
  C      442.293    -121.529     236.131
  N      443.244    -120.687     236.637
  O      441.430    -123.944     242.147
  O      440.108    -121.981     241.163
  H      444.361    -118.631     239.993
  H      440.622    -124.021     242.688
  H      443.765    -116.354     235.679
  H      442.233    -122.576     236.411
  H      445.228    -120.745     237.187
  H      443.003    -120.399     239.297
  H      444.798    -121.036     240.905
  H      445.608    -123.157     239.273
  H      443.161    -124.075     239.443
  H      444.071    -123.795     240.954
  H      440.162    -117.592     233.279
  H      439.892    -119.311     233.595
  P      447.319    -120.375     240.722
  C      449.246    -122.087     240.276
  O      448.824    -120.731     240.304
  O      447.009    -121.492     241.830
  O      447.097    -119.006     241.275
  H      447.179    -121.125     242.719
  H      450.272    -122.135     239.977
  H      448.646    -122.633     239.579
  H      449.138    -122.514     241.251

 6  7  8  9  10  11  12  13  14  15  25  28  32  33  34  35 0
 6-311+G(2d,p)
 ****
 36  37  40 0
 6-311+G(2d,p)
 ****
 1  2  3  4  5  16  17  18  19  20  21  22  23  24 0
 3-21G
 ****
 26  27  29  30  31  38  39 41  42  43  44  45  46  47  48 0
 3-21G
 ****


