%nproc=1
%NoSave
%Mem=1900MB
#P OB98/GEN NMR

erre ene a

0 1
  C     -380.516    -644.344    -465.652
  O     -379.313    -643.663    -465.321
  P     -379.441    -642.371    -464.370
  C     -377.480    -642.935    -462.747
  O     -378.877    -642.815    -462.936
  C     -377.184    -643.203    -461.261
  O     -377.712    -644.485    -460.863
  C     -375.695    -643.216    -460.907
  O     -375.204    -641.898    -460.749
  C     -375.692    -644.037    -459.628
  O     -376.059    -643.228    -458.497
  C     -376.778    -645.086    -459.919
  N     -376.495    -650.089    -459.159
  C     -376.952    -649.079    -458.327
  N     -377.437    -649.468    -457.130
  N     -376.930    -647.808    -458.631
  C     -376.392    -647.562    -459.851
  C     -375.900    -648.474    -460.764
  C     -375.979    -649.874    -460.442
  O     -375.679    -650.805    -461.190
  N     -375.427    -647.841    -461.888
  C     -375.668    -646.560    -461.673
  N     -376.272    -646.342    -460.456
  O     -381.013    -642.238    -464.138
  O     -378.821    -641.120    -464.910
  H     -375.932    -643.741    -457.679
  H     -381.389    -641.561    -464.753
  H     -376.555    -651.042    -458.885
  H     -375.438    -645.755    -462.359
  H     -377.353    -645.344    -459.023
  H     -374.712    -644.456    -459.408
  H     -377.465    -650.427    -456.812
  H     -375.130    -643.750    -461.685
  H     -377.781    -648.757    -456.499
  H     -377.707    -642.431    -460.670
  H     -376.993    -642.000    -463.046
  H     -377.087    -643.762    -463.363
  P     -373.959    -641.450    -461.657
  C     -375.189    -639.216    -462.191
  O     -374.498    -640.356    -462.693
  O     -373.688    -642.745    -462.571
  O     -372.744    -641.059    -460.885
  H     -372.723    -642.841    -462.721
  H     -375.033    -638.381    -462.869
  H     -374.836    -638.954    -461.196
  H     -376.268    -639.444    -462.155
  H     -380.292    -645.177    -466.284
  H     -381.175    -643.675    -466.164
  H     -380.987    -644.692    -464.756

 3  4  5  6  7  8  9  10  11  12  23  26  30  31 0
 6-311+G(2d,p)
 ****
 33  35  36  37  38 0
 6-311+G(2d,p)
 ****
 1  2  13  14  15  16  17  18  19  20  21  22  24  25 0
 3-21G
 ****
 27  28  29  32  34  39  40  41  42  43  44  45  46  47  48  49 0
 3-21G
 ****


