%nproc=1
%NoSave
%Mem=1900MB
#P OB98/GEN NMR

erre ene a

0 1
  C      285.023    -263.456    -890.310
  O      284.914    -262.449    -891.340
  P      284.168    -262.837    -892.700
  C      282.066    -261.309    -892.590
  O      282.600    -262.629    -892.480
  C      280.742    -261.323    -893.360
  O      280.960    -261.579    -894.780
  C      279.748    -262.371    -892.880
  O      279.015    -261.937    -891.760
  C      278.837    -262.498    -894.090
  O      277.883    -261.408    -894.090
  C      279.825    -262.350    -895.260
  N      278.912    -265.960    -898.700
  C      278.241    -264.769    -898.440
  N      277.168    -264.518    -899.220
  N      278.575    -263.930    -897.510
  C      279.677    -264.297    -896.820
  C      280.431    -265.457    -896.960
  C      280.028    -266.388    -897.990
  O      280.572    -267.473    -898.250
  N      281.462    -265.495    -896.070
  C      281.351    -264.371    -895.390
  N      280.274    -263.625    -895.790
  O      284.309    -264.442    -892.740
  O      284.753    -262.199    -893.910
  H      277.466    -261.408    -894.970
  H      284.302    -264.747    -893.660
  H      278.601    -266.584    -899.400
  H      282.040    -264.063    -894.590
  H      279.392    -261.776    -896.100
  H      278.261    -263.431    -894.070
  H      276.868    -265.097    -900.000
  H      280.273    -263.342    -892.700
  H      276.681    -263.641    -899.080
  H      280.298    -260.316    -893.250
  H      282.783    -260.646    -893.080
  H      281.932    -260.892    -891.590
  P      279.390    -262.546    -890.320
  C      280.284    -260.373    -889.200
  O      280.581    -261.644    -889.750
  O      280.097    -263.939    -890.700
  O      278.225    -262.752    -889.400
  H      279.921    -264.607    -890.000
  H      281.187    -259.982    -888.720
  H      279.477    -260.455    -888.450
  H      279.971    -259.694    -890.010
  H      285.543    -263.050    -889.468
  H      285.563    -264.298    -890.690
  H      284.044    -263.766    -890.009

 3  4  5  6  7  8  9  10  11  12  23  26  30  31 0
 6-311+G(2d,p)
 ****
 33  35  36  37  38 0
 6-311+G(2d,p)
 ****
 1  2  13  14  15  16  17  18  19  20  21  22  24  25 0
 3-21G
 ****
 27  28  29  32  34  39  40  41  42  43  44  45  46  47  48  49 0
 3-21G
 ****


