%nproc=1
%NoSave
%Mem=1900MB
#P OB98/GEN NMR

erre ene a

0 1
  C     -167.604     238.775     -12.125
  O     -166.294     238.642     -11.563
  P     -165.052     238.907     -12.554
  C     -164.115     237.782     -14.709
  O     -165.031     237.710     -13.625
  C     -163.813     236.391     -15.257
  O     -163.071     235.606     -14.302
  C     -165.048     235.560     -15.577
  O     -165.615     235.924     -16.830
  C     -164.455     234.159     -15.641
  O     -163.869     233.935     -16.939
  C     -163.363     234.208     -14.559
  N     -162.959     230.081     -11.640
  C     -162.397     230.355     -12.874
  N     -161.592     229.398     -13.387
  N     -162.605     231.459     -13.538
  C     -163.408     232.336     -12.889
  C     -164.028     232.181     -11.669
  C     -163.814     230.936     -10.956
  O     -164.316     230.635      -9.876
  N     -164.762     233.291     -11.332
  C     -164.563     234.129     -12.335
  N     -163.761     233.589     -13.310
  O     -163.783     238.594     -11.629
  O     -165.010     240.286     -13.118
  H     -163.211     234.641     -17.078
  H     -163.009     239.097     -11.943
  H     -162.773     229.209     -11.175
  H     -164.971     235.130     -12.397
  H     -162.432     233.742     -14.898
  H     -165.203     233.375     -15.491
  H     -161.328     228.556     -12.899
  H     -165.782     235.617     -14.761
  H     -161.141     229.597     -14.275
  H     -163.196     236.508     -16.161
  H     -163.186     238.255     -14.380
  H     -164.539     238.428     -15.488
  P     -167.056     236.633     -16.801
  C     -169.488     235.790     -17.139
  O     -168.113     235.472     -17.138
  O     -167.040     237.538     -18.121
  O     -167.328     237.434     -15.571
  H     -167.613     238.320     -18.000
  H     -169.675     236.747     -17.633
  H     -169.858     235.831     -16.106
  H     -170.030     235.005     -17.677
  H     -168.337     238.575     -11.372
  H     -167.720     238.078     -12.929
  H     -167.734     239.771     -12.494

 3  4  5  6  7  8  9  10  11  12  23  26  30  31  33  0
 6-311+G(2d,p)
 ****
 35  36  37  38 0
 6-311+G(2d,p)
 ****
 1  2  13  14  15  16  17  18  19  20  21  22  24  25  27  28  29 0
 3-21G
 ****
 32  34  39  40  41  42  43  44  45  46  47  48  49 0
 3-21G
 ****


