%nproc=1
%NoSave
%Mem=1900MB
#P OB98/GEN NMR

erre ene a

0 1
  C      220.547      96.951      36.553
  O      221.871      96.531      36.817
  H      220.195      97.599      37.363
  H      220.535      97.516      35.617
  H      219.883      96.088      36.455
  P      222.080      95.536      38.057
  C      222.933      97.337      39.729
  O      221.892      96.437      39.378
  C      222.561      98.110      40.995
  O      223.650      99.013      41.332
  C      221.288      98.951      40.854
  O      220.553      98.892      42.078
  C      221.816     100.358      40.636
  O      220.877     101.357      41.026
  C      223.090     100.337      41.476
  N      224.629     105.169      42.098
  C      223.715     104.417      42.755
  N      223.370     103.133      42.523
  C      224.117     102.610      41.536
  C      225.080     103.248      40.769
  C      225.323     104.598      41.082
  N      226.226     105.380      40.398
  N      225.598     102.387      39.822
  C      224.953     101.250      40.007
  N      224.046     101.337      41.028
  O      223.666      95.263      38.015
  O      221.297      94.273      38.017
  H      220.052     101.217      40.512
  H      223.859      94.595      37.327
  H      223.188     104.916      43.560
  H      225.104     100.345      39.433
  H      222.899     100.522      42.536
  H      222.051     100.509      39.572
  H      220.653      98.620      40.029
  H      222.475      97.399      41.828
  H      223.091      98.042      38.904
  H      226.297     106.355      40.643
  H      226.713     104.989      39.598
  H      223.859      96.772      39.899
  P      219.233      97.974      42.079
  C      217.553      99.764      42.897
  O      217.956      98.909      41.839
  O      219.097      97.523      43.612
  O      219.335      96.784      41.172
  H      218.978      96.556      43.666
  H      216.693     100.324      42.595
  H      218.351     100.436      43.136
  H      217.311      99.177      43.758

 6  7  8  9  10  11  12  13  14  15  25  28  32  33  34  35 0
 6-311+G(2d,p)
 ****
 36  39  40 0
 6-311+G(2d,p)
 ****
 1  2  3  4  5  16  17  18  19  20  21  22  23  24 0
 3-21G
 ****
 26  27  29  30  31  37  38  41  42  43  44  45  46  47 0
 3-21G
 ****
 48 0
 3-21G
 ****


