%nproc=1
%NoSave
%Mem=1900MB
#P OB98/GEN NMR

erre ene a

0 1
  C      476.175     214.785    -210.582
  O      475.755     216.027    -210.058
  H      475.309     214.118    -210.641
  H      476.924     214.327    -209.929
  H      476.586     214.914    -211.588
  P      476.850     217.167    -209.806
  C      476.372     218.870    -211.686
  O      476.207     218.550    -210.311
  C      476.509     220.389    -211.861
  O      477.074     220.628    -213.174
  C      475.156     221.114    -211.778
  O      475.149     222.181    -210.835
  C      474.850     221.454    -213.231
  O      474.011     222.579    -213.409
  C      476.241     221.593    -213.853
  N      476.270     221.368    -215.299
  C      476.049     222.468    -216.125
  O      475.861     223.618    -215.732
  N      476.067     222.208    -217.471
  C      476.267     220.998    -218.056
  O      476.277     220.828    -219.271
  C      476.473     219.868    -217.132
  C      476.462     220.099    -215.817
  O      478.214     216.883    -210.343
  O      476.869     217.343    -208.214
  H      474.337     223.290    -212.823
  H      477.654     216.889    -207.843
  H      475.919     223.003    -218.078
  H      476.622     218.886    -217.563
  H      476.610     219.293    -215.106
  H      476.649     222.587    -213.666
  H      474.336     220.598    -213.687
  H      474.375     220.439    -211.402
  H      477.217     220.768    -211.121
  H      475.495     218.502    -212.228
  H      477.267     218.372    -212.077
  P      474.240     222.231    -209.520
  C      476.064     221.309    -207.878
  O      475.204     222.373    -208.249
  O      473.163     221.201    -209.446
  O      473.525     223.673    -209.619
  H      472.640     223.576    -209.212
  H      476.625     221.590    -207.011
  H      476.735     221.095    -208.684
  H      475.481     220.439    -207.659

 6  7  8  9  10  11  12  13  14  15  16  26  31  32  33  34  35 0
 6-311+G(2d,p)
 ****
 36  37 0
 6-311+G(2d,p)
 ****
 1  2  3  4  5  17  18  19  20  21  22  23  24  25 0
 3-21G
 ****
 27  28  29  30  38  39  40  41  42  43  44  45 0
 3-21G
 ****


