%nproc=1
%NoSave
%Mem=1900MB
#P OB98/GEN NMR

erre ene a

0 1
  C      -74.514      91.129     -48.985
  O      -75.627      90.240     -49.126
  P      -77.067      90.869     -49.454
  C      -78.662      89.163     -48.203
  O      -78.185      89.726     -49.410
  C      -80.020      88.485     -48.470
  O      -81.007      89.465     -48.861
  C      -79.977      87.448     -49.591
  O      -79.571      86.173     -49.117
  C      -81.394      87.481     -50.121
  O      -82.273      86.741     -49.253
  C      -81.704      88.998     -50.052
  N      -81.302      89.844     -51.200
  C      -81.860      89.617     -52.451
  O      -82.675      88.734     -52.701
  N      -81.445      90.459     -53.456
  C      -80.689      91.597     -53.304
  O      -80.402      92.343     -54.228
  C      -80.260      91.869     -51.926
  C      -80.563      90.998     -50.965
  O      -76.978      91.247     -51.005
  O      -77.434      92.055     -48.604
  H      -82.025      85.797     -49.343
  H      -77.046      92.220     -51.123
  H      -81.778      90.271     -54.386
  H      -79.694      92.778     -51.750
  H      -80.245      91.204     -49.943
  H      -82.779      89.168     -49.886
  H      -81.466      87.004     -51.109
  H      -79.308      87.791     -50.394
  H      -80.364      88.004     -47.543
  H      -78.778      89.927     -47.437
  H      -77.947      88.430     -47.831
  P      -78.104      85.620     -49.438
  C      -78.665      83.357     -50.523
  O      -78.210      84.013     -49.358
  O      -76.979      86.237     -48.669
  O      -77.947      85.880     -51.028
  H      -77.475      86.719     -51.204
  H      -78.557      82.278     -50.374
  H      -78.093      83.680     -51.389
  H      -79.727      83.572     -50.682
  H      -73.631      90.564     -48.769
  H      -74.704      91.814     -48.185
  H      -74.375      91.674     -49.895

 3  4  5  6  7  8  9  10  11  12  13  23  28  29  30  31  32 0
 6-311+G(2d,p)
 ****
 33  34 0
 6-311+G(2d,p)
 ****
 1  2  14  15  16  17  18  19  20  21  22  24  25  26  27 0
 3-21G
 ****
 35  36  37  38  39  40  41  42  43  44  45 0
 3-21G
 ****


