%nproc=1
%NoSave
%Mem=1900MB
#P OB98/GEN NMR

erre ene a

0 1
  C       -2.161     -26.963      17.275
  O       -2.276     -26.840      15.868
  P       -1.113     -27.357      14.902
  C        1.416     -26.706      14.637
  O        0.101     -26.326      14.979
  C        2.351     -25.508      14.849
  O        2.673     -25.371      16.248
  C        3.658     -25.673      14.078
  O        3.582     -25.024      12.819
  C        4.676     -25.056      15.017
  O        4.678     -23.622      14.885
  C        4.114     -25.466      16.399
  N        4.433     -26.814      16.907
  C        4.358     -27.070      18.273
  O        4.009     -26.240      19.105
  N        4.731     -28.333      18.661
  C        5.114     -29.343      17.828
  O        5.669     -30.372      18.195
  C        4.910     -29.094      16.398
  C        4.608     -27.857      16.008
  O       -1.719     -27.106      13.442
  O       -0.698     -28.777      15.099
  H        5.203     -23.407      14.093
  H       -2.091     -27.930      13.078
  H        4.814     -28.483      19.662
  H        5.067     -29.912      15.707
  H        4.489     -27.639      14.949
  H        4.416     -24.750      17.173
  H        5.685     -25.384      14.776
  H        3.895     -26.738      13.956
  H        1.833     -24.595      14.531
  H        1.451     -27.038      13.594
  H        1.737     -27.550      15.256
  P        4.854     -25.028      11.849
  C        7.304     -24.735      12.540
  O        5.991     -24.221      12.641
  O        4.599     -24.572      10.451
  O        5.346     -26.552      11.897
  H        5.003     -27.036      11.118
  H        7.999     -24.007      12.965
  H        7.568     -24.912      11.494
  H        7.379     -25.668      13.105
  H       -3.036     -26.561      17.741
  H       -1.299     -26.425      17.611
  H       -2.060     -27.996      17.536

 3  4  5  6  7  8  9  10  11  12  13  23  28  29  30  31  32 0
 6-311+G(2d,p)
 ****
 33  34 0
 6-311+G(2d,p)
 ****
 1  2  14  15  16  17  18  19  20  21  22  24  25  26  27 0
 3-21G
 ****
 35  36  37  38  39  40  41  42  43  44  45 0
 3-21G
 ****


