%nproc=1
%NoSave
%Mem=1900MB
#P OB98/GEN NMR

erre ene a

0 1
  C     -434.370     418.662     -47.177
  O     -434.697     417.289     -47.086
  H     -435.226     419.199     -47.599
  H     -433.507     418.807     -47.835
  H     -434.156     419.066     -46.184
  P     -433.552     416.314     -46.522
  C     -433.646     414.553     -44.641
  O     -434.359     415.190     -45.701
  C     -434.616     414.131     -43.533
  O     -435.333     415.311     -43.071
  C     -435.660     413.105     -43.984
  O     -435.889     412.172     -42.931
  C     -436.911     413.939     -44.213
  O     -438.107     413.178     -44.082
  C     -436.745     415.040     -43.169
  N     -441.396     416.998     -43.949
  C     -440.986     415.802     -43.457
  N     -439.715     415.371     -43.266
  C     -438.836     416.331     -43.598
  C     -439.099     417.587     -44.113
  C     -440.457     417.914     -44.302
  N     -440.884     419.107     -44.818
  N     -437.924     418.266     -44.367
  C     -436.959     417.435     -43.999
  N     -437.465     416.246     -43.543
  O     -432.445     416.984     -45.778
  O     -433.113     415.530     -47.846
  H     -438.088     412.731     -43.210
  H     -433.888     415.257     -48.372
  H     -441.777     415.107     -43.188
  H     -435.896     417.646     -44.059
  H     -437.107     414.735     -42.172
  H     -436.893     414.368     -45.228
  H     -435.357     412.572     -44.892
  H     -434.033     413.762     -42.680
  H     -432.890     415.233     -44.231
  H     -441.878     419.271     -44.905
  H     -440.199     419.820     -45.069
  H     -433.145     413.672     -45.058
  P     -435.462     410.640     -43.153
  C     -435.661     408.414     -41.847
  O     -436.157     409.742     -42.016
  O     -434.008     410.395     -43.365
  O     -436.301     410.236     -44.458
  H     -435.761     409.639     -45.012
  H     -436.205     407.927     -41.065
  H     -434.623     408.451     -41.590
  H     -435.783     407.869     -42.759

 6  7  8  9  10  11  12  13  14  15  25  28  32  33  34  35 0
 6-311+G(2d,p)
 ****
 36  39  40 0
 6-311+G(2d,p)
 ****
 1  2  3  4  5  16  17  18  19  20  21  22  23  24 0
 3-21G
 ****
 26  27  29  30  31  37  38  41  42  43  44  45  46  47 0
 3-21G
 ****
 48 0
 3-21G
 ****


