%nproc=1
%NoSave
%Mem=1900MB
#P OB98/GEN NMR

erre ene a

0 1
  C      -10.768       8.542     -13.842
  O      -10.938       9.334     -15.006
  P      -10.998       8.661     -16.454
  C      -11.815       9.403     -18.836
  O      -11.664       9.700     -17.465
  C      -12.604      10.536     -19.505
  O      -13.942      10.595     -18.968
  C      -11.943      11.892     -19.275
  O      -11.097      12.227     -20.363
  C      -13.134      12.820     -19.127
  O      -13.646      13.192     -20.420
  C      -14.147      11.911     -18.390
  N      -14.033      11.789     -16.924
  C      -15.182      11.806     -16.140
  O      -16.318      11.888     -16.597
  N      -14.978      11.749     -14.784
  C      -13.768      11.633     -14.164
  O      -13.580      11.825     -12.969
  C      -12.632      11.347     -15.044
  C      -12.808      11.460     -16.361
  O      -12.124       7.538     -16.284
  O       -9.710       8.092     -16.952
  H      -12.911      13.599     -20.913
  H      -11.718       6.663     -16.133
  H      -15.798      11.902     -14.205
  H      -11.678      11.109     -14.592
  H      -11.969      11.291     -17.033
  H      -15.176      12.215     -18.609
  H      -12.852      13.748     -18.633
  H      -11.384      11.887     -18.331
  H      -12.681      10.327     -20.580
  H      -12.338       8.449     -18.959
  H      -10.833       9.296     -19.308
  P       -9.924      13.295     -20.153
  C       -7.647      13.720     -21.249
  O       -8.830      12.947     -21.272
  O       -9.401      13.412     -18.759
  O      -10.582      14.667     -20.657
  H      -10.912      15.179     -19.891
  H       -6.922      13.272     -21.931
  H       -7.222      13.742     -20.241
  H       -7.864      14.738     -21.582
  H      -10.753       9.175     -12.979
  H       -9.844       8.006     -13.907
  H      -11.578       7.848     -13.762

 3  4  5  6  7  8  9  10  11  12  13  23  28  29  30  31  32 0
 6-311+G(2d,p)
 ****
 33  34 0
 6-311+G(2d,p)
 ****
 1  2  14  15  16  17  18  19  20  21  22  24  25  26  27 0
 3-21G
 ****
 35  36  37  38  39  40  41  42  43  44  45 0
 3-21G
 ****


