%nproc=1
%NoSave
%Mem=1900MB
#P OB98/GEN NMR

erre ene a

0 1
  C      181.011    -240.134    -842.588
  O      180.578    -238.899    -842.000
  P      181.699    -237.921    -841.395
  C      180.980    -235.571    -842.257
  O      181.863    -236.678    -842.396
  C      181.714    -234.264    -842.565
  O      182.702    -233.961    -841.560
  C      182.458    -234.277    -843.900
  O      181.600    -233.984    -844.990
  C      183.446    -233.143    -843.694
  O      182.786    -231.877    -843.923
  C      183.817    -233.293    -842.216
  N      188.856    -233.010    -841.848
  C      187.923    -232.013    -842.052
  N      188.401    -230.750    -842.159
  N      186.636    -232.231    -842.135
  C      186.299    -233.533    -841.982
  C      187.131    -234.610    -841.784
  C      188.555    -234.360    -841.707
  O      189.435    -235.202    -841.551
  N      186.423    -235.777    -841.687
  C      185.166    -235.409    -841.814
  N      185.036    -234.056    -842.014
  O      183.051    -238.747    -841.627
  O      181.499    -237.570    -839.956
  H      182.577    -231.842    -844.876
  H      183.712    -238.487    -840.954
  H      189.832    -232.790    -841.800
  H      184.316    -236.081    -841.765
  H      183.958    -232.322    -841.715
  H      184.291    -233.189    -844.396
  H      189.375    -230.511    -842.055
  H      182.999    -235.227    -844.037
  H      187.726    -230.009    -842.272
  H      180.976    -233.453    -842.578
  H      180.569    -235.538    -841.248
  H      180.122    -235.716    -842.923
  P      181.593    -235.002    -846.231
  C      179.498    -236.134    -845.184
  O      180.793    -236.302    -845.730
  O      183.117    -235.488    -846.302
  O      181.138    -234.411    -847.522
  H      183.361    -235.692    -847.223
  H      179.051    -237.122    -845.055
  H      178.868    -235.543    -845.850
  H      179.568    -235.644    -844.209
  H      180.161    -240.676    -842.945
  H      181.524    -240.719    -841.853
  H      181.671    -239.928    -843.404

 3  4  5  6  7  8  9  10  11  12  23  26  30  31 0
 6-311+G(2d,p)
 ****
 33  35  36  37  38 0
 6-311+G(2d,p)
 ****
 1  2  13  14  15  16  17  18  19  20  21  22  24  25 0
 3-21G
 ****
 27  28  29  32  34  39  40  41  42  43  44  45  46  47  48  49 0
 3-21G
 ****


