%nproc=1
%NoSave
%Mem=1900MB
#P OB98/GEN NMR

erre ene a

0 1
  C     -104.950      20.702     196.160
  O     -104.972      19.830     195.046
  P     -105.050      20.432     193.565
  C     -107.604      20.134     193.547
  O     -106.521      21.039     193.361
  C     -108.930      20.888     193.577
  O     -108.826      22.059     194.418
  C     -109.379      21.404     192.215
  O     -109.913      20.356     191.430
  C     -110.389      22.475     192.621
  O     -111.663      21.878     192.923
  C     -109.746      23.046     193.897
  N     -109.669      28.021     195.024
  C     -110.577      27.052     195.277
  N     -110.545      25.752     194.908
  C     -109.441      25.497     194.185
  C     -108.444      26.387     193.814
  C     -108.571      27.709     194.288
  N     -107.624      28.686     194.087
  N     -107.490      25.755     193.043
  C     -107.910      24.508     192.941
  N     -109.047      24.294     193.668
  O     -104.585      19.518     192.478
  O     -104.128      21.741     193.635
  H     -111.505      21.186     193.593
  H     -103.390      21.652     193.003
  H     -111.441      27.360     195.862
  H     -107.419      23.727     192.373
  H     -110.492      23.225     194.681
  H     -110.553      23.216     191.837
  H     -108.536      21.883     191.700
  H     -109.692      20.228     194.011
  H     -107.454      19.608     194.497
  H     -107.748      29.551     194.591
  H     -106.688      28.400     193.816
  H     -107.607      19.397     192.736
  P     -109.475      20.205     189.896
  C     -111.615      21.366     189.090
  O     -110.198      21.382     189.085
  O     -109.625      18.840     189.312
  O     -107.939      20.671     189.899
  H     -107.450      20.179     189.213
  H     -111.976      20.615     188.382
  H     -111.978      22.352     188.779
  H     -112.000      21.146     190.089
  H     -104.897      20.128     197.061
  H     -105.841      21.295     196.167
  H     -104.096      21.343     196.094

 3  4  5  6  7  8  9  10  11  12  22  25  29  30  31  32 0
 6-311+G(2d,p)
 ****
 33  36  37 0
 6-311+G(2d,p)
 ****
 1  2  13  14  15  16  17  18  19  20  21  23  24  26 0
 3-21G
 ****
 27  28  34  35  38  39  40  41  42  43  44  45  46  47  48 0
 3-21G
 ****


