%nproc=1
%NoSave
%Mem=1900MB
#P OB98/GEN NMR

erre ene a

0 1
  C       -4.318     -18.253     194.890
  O       -3.963     -19.582     194.553
  H       -3.431     -17.622     194.799
  H       -4.679     -18.209     195.921
  H       -5.088     -17.886     194.205
  P       -5.142     -20.672     194.601
  C       -7.494     -20.791     193.520
  O       -6.331     -20.003     193.755
  C       -8.627     -19.920     192.977
  O       -8.958     -18.881     193.916
  C       -8.303     -19.207     191.670
  O       -8.469     -20.084     190.564
  C       -9.350     -18.107     191.679
  O      -10.619     -18.638     191.248
  C       -9.424     -17.723     193.167
  N       -9.549     -12.787     194.582
  C      -10.512     -13.615     194.110
  N      -10.397     -14.899     193.715
  C       -9.129     -15.324     193.842
  C       -8.042     -14.599     194.313
  C       -8.291     -13.272     194.703
  N       -7.308     -12.439     195.194
  N       -6.898     -15.369     194.302
  C       -7.296     -16.554     193.884
  N       -8.631     -16.567     193.560
  O       -5.497     -21.182     195.956
  O       -4.579     -21.776     193.585
  H      -11.267     -17.907     191.268
  H       -4.138     -21.351     192.830
  H      -11.507     -13.182     194.041
  H       -6.666     -17.434     193.817
  H      -10.451     -17.520     193.486
  H       -9.101     -17.290     190.999
  H       -7.306     -18.755     191.696
  H       -9.515     -20.556     192.868
  H       -7.814     -21.285     194.441
  H       -7.532     -11.460     195.287
  H       -6.350     -12.761     195.166
  H       -7.227     -21.561     192.788
  P       -7.615     -19.872     189.221
  C       -5.147     -20.227     188.591
  O       -6.070     -19.959     189.642
  O       -7.976     -18.662     188.427
  O       -7.841     -21.215     188.386
  H       -7.917     -21.017     187.433
  H       -4.154     -20.262     188.988
  H       -5.210     -19.453     187.855
  H       -5.384     -21.168     188.140

 6  7  8  9  10  11  12  13  14  15  25  28  32  33  34  35 0
 6-311+G(2d,p)
 ****
 36  39  40 0
 6-311+G(2d,p)
 ****
 1  2  3  4  5  16  17  18  19  20  21  22  23  24 0
 3-21G
 ****
 26  27  29  30  31  37  38  41  42  43  44  45  46  47 0
 3-21G
 ****
 48 0
 3-21G
 ****


