%nproc=1
%NoSave
%Mem=1900MB
#P OB98/GEN NMR

erre ene a

0 1
  C     -612.845    1040.913    -188.996
  O     -611.775    1040.604    -188.132
  H     -613.630    1040.154    -188.913
  H     -613.274    1041.879    -188.699
  H     -612.494    1040.980    -190.025
  P     -611.037    1039.198    -188.366
  C     -613.012    1037.970    -187.207
  O     -612.173    1038.056    -188.356
  C     -614.410    1037.550    -187.614
  O     -614.286    1036.475    -188.610
  C     -615.294    1037.004    -186.457
  O     -616.491    1037.778    -186.362
  C     -615.659    1035.593    -186.872
  O     -617.016    1035.258    -186.585
  C     -615.402    1035.579    -188.383
  N     -617.268    1031.553    -190.863
  C     -617.640    1032.849    -190.855
  N     -617.031    1033.894    -190.258
  C     -615.912    1033.492    -189.634
  C     -615.389    1032.217    -189.570
  C     -616.125    1031.198    -190.209
  N     -615.769    1029.868    -190.164
  N     -614.222    1032.195    -188.815
  C     -614.069    1033.438    -188.405
  N     -615.073    1034.257    -188.849
  O     -610.257    1038.957    -186.991
  O     -610.113    1039.158    -189.540
  H     -617.559    1036.031    -186.849
  H     -609.328    1038.703    -187.184
  H     -618.549    1033.074    -191.400
  H     -613.277    1033.797    -187.754
  H     -616.259    1035.957    -188.954
  H     -615.004    1034.888    -186.358
  H     -614.762    1037.017    -185.501
  H     -614.911    1038.385    -188.114
  H     -613.063    1038.953    -186.723
  H     -616.419    1029.208    -190.556
  H     -614.979    1029.595    -189.596
  H     -612.566    1037.267    -186.492
  P     -616.544    1038.914    -185.210
  C     -617.815    1037.197    -183.722
  O     -616.758    1038.163    -183.816
  O     -617.935    1039.634    -185.467
  O     -615.389    1039.869    -185.263
  H     -617.901    1040.564    -185.159
  H     -617.833    1036.783    -182.736
  H     -617.649    1036.416    -184.434
  H     -618.752    1037.672    -183.926

 6  7  8  9  10  11  12  13  14  15  25  28  32  33  34  35 0
 6-311+G(2d,p)
 ****
 36  39  40 0
 6-311+G(2d,p)
 ****
 1  2  3  4  5  16  17  18  19  20  21  22  23  24 0
 3-21G
 ****
 26  27  29  30  31  37  38  41  42  43  44  45  46  47  48 0
 3-21G
 ****


