%nproc=1
%NoSave
%Mem=1900MB
#P OB98/GEN NMR

erre ene a

0 1
  C     -260.700    -147.806      39.588
  O     -259.836    -146.985      38.820
  P     -258.620    -146.251      39.558
  C     -258.322    -144.930      41.779
  O     -259.222    -145.437      40.805
  C     -258.927    -145.064      43.179
  O     -259.064    -146.481      43.515
  C     -258.087    -144.414      44.290
  O     -258.998    -143.908      45.283
  C     -257.323    -145.595      44.861
  O     -256.817    -145.356      46.166
  C     -258.404    -146.676      44.783
  N     -257.864    -148.034      44.905
  C     -257.378    -148.420      46.147
  O     -257.373    -147.686      47.141
  N     -256.817    -149.667      46.211
  C     -256.626    -150.515      45.162
  O     -256.019    -151.572      45.262
  C     -257.159    -150.058      43.865
  C     -257.745    -148.859      43.802
  O     -258.201    -145.105      38.519
  O     -257.470    -147.143      39.900
  H     -256.343    -144.504      46.139
  H     -257.413    -145.379      38.013
  H     -256.473    -149.966      47.110
  H     -257.043    -150.714      43.016
  H     -258.136    -148.483      42.857
  H     -259.163    -146.512      45.566
  H     -256.473    -145.829      44.209
  H     -257.430    -143.616      43.933
  H     -259.942    -144.634      43.168
  H     -258.127    -143.878      41.574
  H     -257.371    -145.477      41.723
  P     -258.533    -142.631      46.144
  C     -256.455    -142.225      47.676
  O     -257.387    -143.140      47.138
  O     -259.808    -142.435      47.096
  O     -258.213    -141.428      45.312
  H     -260.148    -143.277      47.453
  H     -256.908    -141.247      47.858
  H     -255.619    -142.108      46.987
  H     -256.073    -142.624      48.625
  H     -261.455    -148.221      38.953
  H     -261.161    -147.219      40.355
  H     -260.136    -148.597      40.035

 3  4  5  6  7  8  9  10  11  12  13  23  28  29  30  31  32 0
 6-311+G(2d,p)
 ****
 33  34 0
 6-311+G(2d,p)
 ****
 1  2  14  15  16  17  18  19  20  21  22  24  25  26 0
 3-21G
 ****
 27  35  36  37  38  39  40  41  42  43  44  45 0
 3-21G
 ****


