%nproc=1
%NoSave
%Mem=1900MB
#P OB98/GEN NMR

erre ene a

0 1
  C      -85.886     130.308      51.993
  O      -85.385     131.355      51.189
  H      -85.453     129.365      51.647
  H      -86.973     130.246      51.901
  H      -85.609     130.455      53.041
  P      -85.758     132.867      51.567
  C      -83.302     133.242      52.251
  O      -84.667     133.361      52.632
  C      -82.581     134.566      52.487
  O      -81.167     134.419      52.224
  C      -83.055     135.697      51.582
  O      -84.304     136.198      52.015
  C      -81.888     136.663      51.711
  O      -81.966     137.408      52.935
  C      -80.683     135.693      51.741
  N      -80.033     135.552      50.437
  C      -78.678     135.856      50.392
  O      -78.037     136.229      51.372
  N      -78.087     135.762      49.159
  C      -78.730     135.489      47.986
  O      -78.211     135.630      46.883
  C      -80.142     135.102      48.108
  C      -80.726     135.167      49.307
  O      -87.178     133.106      51.958
  O      -85.366     133.690      50.248
  H      -86.175     133.882      49.736
  H      -82.858     137.808      52.960
  H      -77.114     136.026      49.106
  H      -80.672     134.816      47.207
  H      -81.776     134.914      49.414
  H      -79.930     136.040      52.461
  H      -81.858     137.390      50.895
  H      -83.113     135.350      50.544
  H      -82.700     134.837      53.543
  H      -83.260     132.988      51.185
  H      -82.839     132.436      52.828
  P      -85.041     137.377      51.224
  C      -85.845     135.845      49.333
  O      -85.073     136.989      49.670
  O      -84.529     138.750      51.510
  O      -86.578     137.240      51.658
  H      -86.893     138.103      51.993
  H      -85.796     135.680      48.277
  H      -86.863     136.004      49.622
  H      -85.458     134.990      49.846

 6  7  8  9  10  11  12  13  14  15  16  27  31  32  33  34  35 0
 6-311+G(2d,p)
 ****
 36  37 0
 6-311+G(2d,p)
 ****
 1  2  3  4  5  17  18  19  20  21  22  23  24  25 0
 3-21G
 ****
 26  28  29  30  38  39  40  41  42  43  44  45 0
 3-21G
 ****


