%nproc=1
%NoSave
%Mem=1900MB
#P OB98/GEN NMR

erre ene a

0 1
  C     -223.888     -57.943     106.766
  O     -224.419     -56.787     107.382
  H     -222.798     -57.857     106.733
  H     -224.265     -58.031     105.744
  H     -224.155     -58.837     107.337
  P     -226.001     -56.758     107.637
  C     -225.841     -58.242     109.771
  O     -226.209     -56.990     109.213
  C     -225.462     -58.062     111.244
  O     -224.110     -57.532     111.312
  C     -226.376     -57.084     111.991
  O     -226.561     -57.547     113.332
  C     -225.573     -55.793     111.998
  O     -225.932     -54.902     113.044
  C     -224.146     -56.340     112.123
  N     -223.138     -55.380     111.680
  C     -222.788     -54.366     112.564
  O     -223.211     -54.259     113.715
  N     -221.906     -53.434     112.076
  C     -221.373     -53.407     110.819
  O     -220.606     -52.532     110.435
  C     -221.788     -54.501     109.928
  C     -222.637     -55.421     110.392
  O     -226.504     -58.137     106.997
  O     -226.723     -55.574     107.087
  H     -226.741     -58.012     106.058
  H     -225.503     -54.039     112.866
  H     -221.640     -52.691     112.705
  H     -221.392     -54.508     108.920
  H     -222.972     -56.234     109.756
  H     -223.943     -56.641     113.159
  H     -225.703     -55.267     111.045
  H     -227.346     -56.954     111.508
  H     -225.451     -59.044     111.732
  H     -224.981     -58.641     109.224
  H     -226.680     -58.940     109.678
  P     -227.947     -58.286     113.673
  C     -227.607     -60.853     114.040
  O     -227.556     -59.548     114.589
  O     -228.324     -58.920     112.258
  O     -228.970     -57.366     114.253
  H     -227.553     -59.240     111.757
  H     -227.317     -61.565     114.785
  H     -226.938     -60.916     113.207
  H     -228.604     -61.064     113.714

 6  7  8  9  10  11  12  13  14  15  16  27  31  32  33  34  35 0
 6-311+G(2d,p)
 ****
 36  37 0
 6-311+G(2d,p)
 ****
 1  2  3  4  5  17  18  19  20  21  22  23  24  25 0
 3-21G
 ****
 26  28  29  30  38  39  40  41  42  43  44  45 0
 3-21G
 ****


