%nproc=1
%NoSave
%Mem=1900MB
#P OB98/GEN NMR

erre ene a

0 1
  C       20.540     -35.559     162.179
  O       20.588     -34.428     163.025
  H       19.672     -35.467     161.521
  H       20.436     -36.471     162.771
  H       21.443     -35.610     161.568
  P       21.762     -34.391     164.118
  C       20.168     -35.367     165.924
  O       21.396     -35.498     165.221
  C       20.353     -35.819     167.369
  O       20.570     -37.248     167.413
  C       21.560     -35.203     168.062
  O       21.315     -33.875     168.490
  C       21.753     -36.171     169.219
  O       20.895     -35.848     170.324
  C       21.359     -37.525     168.589
  N       22.524     -38.350     168.285
  C       23.487     -38.424     169.286
  O       23.386     -37.840     170.366
  N       24.600     -39.167     168.992
  C       24.853     -39.793     167.807
  O       25.903     -40.381     167.581
  C       23.792     -39.692     166.791
  C       22.697     -38.979     167.068
  O       21.510     -33.002     164.873
  O       23.144     -34.491     163.565
  H       22.150     -32.334     164.563
  H       20.956     -36.599     170.945
  H       25.314     -39.222     169.700
  H       23.958     -40.186     165.839
  H       21.910     -38.872     166.326
  H       20.714     -38.091     169.274
  H       22.775     -36.147     169.595
  H       22.439     -35.253     167.408
  H       19.432     -35.595     167.925
  H       19.406     -35.995     165.449
  H       19.841     -34.322     165.880
  P       22.556     -32.862     168.600
  C       22.615     -33.039     171.220
  O       23.291     -33.192     169.985
  O       21.802     -31.480     168.875
  O       23.442     -32.871     167.401
  H       21.007     -31.581     169.427
  H       23.271     -33.308     172.021
  H       21.754     -33.674     171.236
  H       22.309     -32.020     171.335

 6  7  8  9  10  11  12  13  14  15  16  27  31  32  33  34  35 0
 6-311+G(2d,p)
 ****
 36  37 0
 6-311+G(2d,p)
 ****
 1  2  3  4  5  17  18  19  20  21  22  23  24  25 0
 3-21G
 ****
 26  28  29  30  38  39  40  41  42  43  44  45 0
 3-21G
 ****


