%nproc=1
%NoSave
%Mem=1900MB
#P OB98/GEN NMR

erre ene a

0 1
  C      -97.572    -896.762    -158.012
  O      -96.448    -897.382    -158.604
  H      -98.481    -897.222    -158.427
  H      -97.585    -895.692    -158.238
  H      -97.573    -896.912    -156.924
  P      -94.989    -896.842    -158.223
  C      -95.254    -898.342    -156.137
  O      -94.805    -897.102    -156.639
  C      -94.412    -898.772    -154.923
  O      -93.033    -898.922    -155.381
  C      -94.431    -897.712    -153.807
  O      -94.781    -898.242    -152.538
  C      -93.047    -897.052    -153.932
  O      -92.567    -896.482    -152.741
  C      -92.171    -898.172    -154.513
  N      -90.999    -897.692    -155.237
  C      -89.763    -897.912    -154.666
  O      -89.567    -898.492    -153.601
  N      -88.686    -897.422    -155.378
  C      -88.743    -896.762    -156.566
  O      -87.745    -896.362    -157.151
  C      -90.094    -896.552    -157.118
  C      -91.143    -897.002    -156.442
  O      -94.662    -895.462    -158.679
  O      -93.997    -897.932    -158.875
  H      -91.605    -896.292    -152.851
  H      -93.613    -897.572    -159.700
  H      -87.785    -897.582    -154.975
  H      -90.173    -896.002    -158.027
  H      -92.154    -896.852    -156.803
  H      -91.835    -898.832    -153.716
  H      -93.122    -896.242    -154.671
  H      -95.194    -896.952    -154.000
  H      -94.763    -899.742    -154.562
  H      -95.157    -899.102    -156.937
  H      -96.308    -898.252    -155.838
  P      -95.756    -897.532    -151.492
  C      -97.613    -899.372    -151.596
  O      -97.245    -898.022    -151.792
  O      -95.557    -896.062    -151.312
  O      -95.398    -898.252    -150.083
  H      -95.518    -897.562    -149.387
  H      -98.644    -899.501    -151.850
  H      -97.462    -899.638    -150.570
  H      -97.011    -900.000    -152.219

 6  7  8  9  10  11  12  13  14  15  16  26  31  32  33  34  35 0
 6-311+G(2d,p)
 ****
 36  37 0
 6-311+G(2d,p)
 ****
 1  2  3  4  5  17  18  19  20  21  22  23  24  25 0
 3-21G
 ****
 27  28  29  30  38  39  40  41  42  43  44  45 0
 3-21G
 ****


