%nproc=1
%NoSave
%Mem=1900MB
#P OB98/GEN NMR

erre ene a

0 1
  C     -475.667    -346.394     314.789
  O     -474.647    -345.462     314.465
  P     -473.220    -345.614     315.176
  C     -471.613    -346.317     313.252
  O     -472.391    -346.730     314.368
  C     -470.210    -346.925     313.332
  O     -469.598    -346.565     314.609
  C     -470.185    -348.457     313.226
  O     -468.975    -348.825     312.544
  C     -470.098    -348.885     314.681
  O     -469.619    -350.211     314.850
  C     -469.168    -347.795     315.226
  N     -469.193    -347.703     316.691
  C     -468.494    -348.668     317.399
  O     -467.861    -349.588     316.877
  N     -468.592    -348.593     318.761
  C     -469.372    -347.722     319.471
  O     -469.505    -347.780     320.683
  C     -470.088    -346.722     318.660
  C     -469.968    -346.758     317.326
  O     -473.574    -346.336     316.561
  O     -472.488    -344.332     315.387
  H     -468.662    -350.200     314.671
  H     -473.600    -345.685     317.286
  H     -468.077    -349.279     319.302
  H     -470.705    -345.999     319.184
  H     -470.505    -346.043     316.713
  H     -468.142    -347.977     314.896
  H     -471.094    -348.822     315.138
  H     -471.054    -348.880     312.715
  H     -469.590    -346.476     312.545
  H     -471.532    -345.230     313.252
  H     -472.114    -346.618     312.325
  P     -469.070    -349.925     311.382
  C     -470.050    -348.547     309.388
  O     -470.272    -349.478     310.424
  O     -469.665    -351.171     312.199
  O     -467.763    -350.217     310.720
  H     -470.379    -350.915     312.810
  H     -469.054    -348.657     308.955
  H     -470.167    -347.538     309.779
  H     -470.795    -348.709     308.602
  H     -476.553    -346.160     314.236
  H     -475.877    -346.343     315.837
  H     -475.340    -347.382     314.538

 3  4  5  6  7  8  9  10  11  12  13  23  28  29  30  31  32 0
 6-311+G(2d,p)
 ****
 33  34 0
 6-311+G(2d,p)
 ****
 1  2  14  15  16  17  18  19  20  21  22  24  25  26 0
 3-21G
 ****
 27  35  36  37  38  39  40  41  42  43  44  45 0
 3-21G
 ****


