%nproc=1
%NoSave
%Mem=1900MB
#P OB98/GEN NMR

erre ene a

0 1
  C     -189.933     155.548      35.216
  O     -189.218     156.058      34.102
  P     -188.124     157.200      34.400
  C     -188.208     159.511      35.614
  O     -188.925     158.439      35.021
  C     -189.001     160.811      35.451
  O     -188.972     161.249      34.078
  C     -190.472     160.697      35.831
  O     -190.632     160.804      37.234
  C     -191.075     161.861      35.052
  O     -190.881     163.105      35.752
  C     -190.264     161.829      33.749
  N     -192.658     162.178      29.308
  C     -192.308     163.167      30.211
  N     -192.605     164.438      29.854
  N     -191.724     162.931      31.357
  C     -191.503     161.617      31.586
  C     -191.815     160.546      30.779
  C     -192.415     160.822      29.493
  O     -192.652     159.994      28.616
  N     -191.458     159.358      31.359
  C     -190.902     159.712      32.501
  N     -190.884     161.072      32.675
  O     -187.712     157.693      32.937
  O     -186.948     156.755      35.213
  H     -191.117     162.987      36.689
  H     -186.877     157.270      32.653
  H     -193.091     162.419      28.434
  H     -190.478     159.027      33.221
  H     -190.073     162.836      33.357
  H     -192.156     161.747      34.912
  H     -193.075     164.690      29.001
  H     -190.888     159.751      35.465
  H     -192.358     165.173      30.507
  H     -188.506     161.584      36.058
  H     -187.240     159.615      35.116
  H     -188.040     159.289      36.674
  P     -191.821     159.969      37.911
  C     -194.389     159.805      37.537
  O     -193.197     160.538      37.317
  O     -191.816     160.479      39.428
  O     -191.659     158.485      37.834
  H     -192.041     159.736      40.024
  H     -195.226     160.503      37.567
  H     -194.353     159.248      38.476
  H     -194.535     159.105      36.710
  H     -190.624     154.801      34.885
  H     -190.468     156.344      35.691
  H     -189.246     155.115      35.913

 3  4  5  6  7  8  9  10  11  12  23  26  30  31 0
 6-311+G(2d,p)
 ****
 33  35  36  37  38 0
 6-311+G(2d,p)
 ****
 1  2  13  14  15  16  17  18  19  20  21  22  24  25 0
 3-21G
 ****
 27  28  29  32  34  39  40  41  42  43  44  45  46  47  48  49 0
 3-21G
 ****


