%nproc=1
%NoSave
%Mem=1900MB
#P OB98/GEN NMR

erre ene a

0 1
  C       56.109     -41.352     -99.418
  O       55.852     -40.722     -98.178
  H       55.892     -40.666    -100.241
  H       57.165     -41.627     -99.459
  H       55.503     -42.257     -99.516
  P       54.339     -40.264     -97.907
  C       54.995     -37.763     -98.117
  O       54.179     -38.822     -98.593
  C       54.126     -36.644     -97.552
  O       54.939     -35.705     -96.818
  C       53.389     -35.817     -98.600
  O       52.220     -36.474     -99.063
  C       53.049     -34.574     -97.792
  O       51.903     -34.835     -96.960
  C       54.303     -34.404     -96.923
  N       55.741     -29.496     -97.035
  C       54.788     -30.141     -96.328
  N       54.478     -31.453     -96.337
  C       55.287     -32.124     -97.172
  C       56.317     -31.611     -97.942
  C       56.534     -30.226     -97.859
  N       57.470     -29.567     -98.639
  N       56.914     -32.609     -98.688
  C       56.243     -33.700     -98.386
  N       55.256     -33.459     -97.470
  O       54.342     -39.942     -96.336
  O       53.297     -41.269     -98.264
  H       52.017     -35.734     -96.599
  H       53.998     -40.714     -95.851
  H       54.190     -29.518     -95.671
  H       56.432     -34.678     -98.806
  H       54.060     -34.081     -95.904
  H       52.805     -33.710     -98.416
  H       54.050     -35.536     -99.428
  H       53.418     -37.093     -96.843
  H       55.599     -37.369     -98.941
  H       57.222     -28.602     -98.840
  H       57.833     -30.116     -99.410
  H       55.661     -38.154     -97.343
  P       52.058     -36.684    -100.645
  C       50.959     -34.348    -100.809
  O       51.974     -35.217    -101.293
  O       50.566     -37.246    -100.779
  O       53.043     -37.611    -101.268
  H       50.577     -38.101    -101.250
  H       51.017     -33.411    -101.323
  H       51.096     -34.188     -99.760
  H       50.000     -34.790    -100.980

 6  7  8  9  10  11  12  13  14  15  25  28  32  33  34  35 0
 6-311+G(2d,p)
 ****
 36  39  40 0
 6-311+G(2d,p)
 ****
 1  2  3  4  5  16  17  18  19  20  21  22  23  24 0
 3-21G
 ****
 26  27  29  30  31  37  38  41  42  43  44  45  46  47  48 0
 3-21G
 ****


