%nproc=1
%NoSave
%Mem=1900MB
#P OB98/GEN NMR

erre ene a

0 1
  C     1562.224    -334.661     247.335
  O     1563.327    -335.170     246.582
  P     1563.493    -334.887     245.002
  C     1562.094    -336.979     244.443
  O     1563.361    -336.317     244.321
  C     1562.191    -338.387     243.840
  O     1562.395    -338.277     242.417
  C     1563.341    -339.245     244.362
  O     1563.085    -339.934     245.577
  C     1563.430    -340.277     243.217
  O     1562.409    -341.278     243.374
  C     1563.196    -339.395     241.991
  N     1566.707    -340.388     238.396
  C     1565.544    -341.015     238.734
  N     1564.688    -340.711     239.721
  C     1565.063    -339.590     240.344
  C     1566.196    -338.821     240.101
  C     1567.040    -339.240     239.072
  N     1568.203    -338.587     238.696
  N     1566.267    -337.720     240.976
  C     1565.159    -337.825     241.709
  N     1564.427    -338.950     241.371
  O     1564.680    -334.056     244.650
  O     1562.106    -334.164     244.620
  H     1562.666    -341.825     244.119
  H     1562.210    -333.711     243.742
  H     1565.323    -341.914     238.172
  H     1564.904    -337.162     242.504
  H     1562.611    -339.937     241.212
  H     1564.406    -340.805     243.230
  H     1564.281    -338.694     244.405
  H     1561.223    -338.897     244.006
  H     1561.353    -336.398     243.868
  H     1568.672    -338.902     237.852
  H     1568.363    -337.659     239.096
  H     1561.802    -336.997     245.480
  P     1563.912    -339.484     246.863
  C     1566.271    -339.397     245.698
  O     1565.408    -340.039     246.650
  O     1563.280    -339.835     248.175
  O     1564.082    -337.894     246.644
  H     1564.629    -337.637     245.888
  H     1567.266    -339.822     245.822
  H     1566.301    -338.326     245.894
  H     1565.902    -339.594     244.699
  H     1562.316    -334.969     248.355
  H     1561.310    -335.040     246.929
  H     1562.220    -333.592     247.284

 3  4  5  6  7  8  9  10  11  12  22  25  29  30  31  32 0
 6-311+G(2d,p)
 ****
 33  36  37 0
 6-311+G(2d,p)
 ****
 1  2  13  14  15  16  17  18  19  20  21  23  24  26 0
 3-21G
 ****
 27  28  34  35  38  39  40  41  42  43  44  45  46  47  48 0
 3-21G
 ****


