%nproc=1
%NoSave
%Mem=1900MB
#P OB98/GEN NMR

erre ene a

0 1
  C     -212.270     174.537      43.052
  O     -211.410     174.142      44.102
  H     -213.160     175.001      43.483
  H     -212.580     173.664      42.472
  H     -211.780     175.264      42.396
  P     -209.940     173.618      43.740
  C     -208.969     171.588      42.477
  O     -210.109     172.151      43.110
  C     -209.407     170.611      41.384
  O     -210.272     171.279      40.439
  C     -208.260     170.039      40.563
  O     -207.564     169.041      41.289
  C     -209.008     169.539      39.337
  O     -209.629     168.267      39.603
  C     -210.076     170.645      39.158
  N     -209.718     171.627      38.134
  C     -210.606     171.774      37.076
  O     -211.629     171.101      36.960
  N     -210.269     172.721      36.136
  C     -209.118     173.449      36.116
  O     -208.836     174.244      35.221
  C     -208.193     173.226      37.240
  C     -208.533     172.342      38.185
  O     -208.924     173.715      44.832
  O     -209.523     174.508      42.473
  H     -210.095     168.011      38.782
  H     -208.931     175.229      42.757
  H     -210.896     172.830      35.359
  H     -207.267     173.788      37.254
  H     -207.866     172.161      39.022
  H     -211.042     170.200      38.878
  H     -208.360     169.401      38.473
  H     -207.577     170.843      40.251
  H     -209.987     169.810      41.859
  H     -208.378     171.049      43.231
  H     -208.362     172.397      42.054
  P     -205.995     168.817      41.071
  C     -204.475     167.548      39.443
  O     -205.818     167.807      39.833
  O     -205.230     168.438      42.297
  O     -205.478     170.212      40.479
  H     -204.980     170.696      41.163
  H     -204.468     166.869      38.616
  H     -203.942     167.116      40.264
  H     -204.004     168.465      39.155

 6  7  8  9  10  11  12  13  14  15  16  26  31  32  33  34  35 0
 6-311+G(2d,p)
 ****
 36  37 0
 6-311+G(2d,p)
 ****
 1  2  3  4  5  17  18  19  20  21  22  23  24  25 0
 3-21G
 ****
 27  28  29  30  38  39  40  41  42  43  44  45 0
 3-21G
 ****


