%nproc=1
%NoSave
%Mem=1900MB
#P OB98/GEN NMR

erre ene a

0 1
  C      253.244     -94.769    -169.076
  O      253.212     -93.333    -169.184
  P      252.698     -92.466    -167.932
  C      251.043     -91.108    -169.438
  O      252.090     -91.086    -168.477
  C      251.414     -90.235    -170.640
  O      252.414     -90.891    -171.454
  C      250.255     -89.948    -171.589
  O      249.386     -88.957    -171.075
  C      250.999     -89.509    -172.847
  O      251.370     -88.118    -172.766
  C      252.251     -90.408    -172.809
  N      252.180     -91.510    -173.764
  C      253.322     -92.293    -173.893
  O      254.370     -92.057    -173.297
  N      253.232     -93.343    -174.766
  C      252.157     -93.642    -175.559
  O      252.146     -94.588    -176.338
  C      251.009     -92.731    -175.434
  C      251.072     -91.723    -174.564
  O      254.080     -91.982    -167.272
  O      251.867     -93.201    -166.931
  H      250.554     -87.624    -172.563
  H      253.954     -91.839    -166.316
  H      254.039     -93.939    -174.852
  H      250.145     -92.920    -176.062
  H      250.230     -91.043    -174.463
  H      253.149     -89.816    -173.025
  H      250.395     -89.626    -173.751
  H      249.710     -90.874    -171.799
  H      251.844     -89.298    -170.264
  H      250.126     -90.720    -168.983
  H      250.870     -92.144    -169.752
  P      247.809     -89.261    -171.181
  C      247.310     -88.110    -173.478
  O      247.208     -88.071    -172.070
  O      247.336     -88.939    -169.684
  O      247.511     -90.647    -171.647
  H      247.855     -88.224    -169.281
  H      247.258     -89.136    -173.856
  H      248.257     -87.662    -173.787
  H      246.486     -87.533    -173.909
  H      253.609     -95.187    -169.991
  H      252.257     -95.134    -168.885
  H      253.891     -95.052    -168.272

 3  4  5  6  7  8  9  10  11  12  13  23  28  29  30  31  32 0
 6-311+G(2d,p)
 ****
 33  34 0
 6-311+G(2d,p)
 ****
 1  2  14  15  16  17  18  19  20  21  22  24  25  26 0
 3-21G
 ****
 27  35  36  37  38  39  40  41  42  43  44  45 0
 3-21G
 ****


