%nproc=1
%NoSave
%Mem=1900MB
#P OB98/GEN NMR

erre ene a

0 1
  C      -35.727     247.310    -261.314
  O      -36.934     246.694    -260.840
  P      -37.967     247.598    -260.013
  C      -39.981     247.646    -261.661
  O      -39.459     247.176    -260.428
  C      -41.151     246.769    -262.118
  O      -40.698     245.536    -262.710
  C      -42.082     246.356    -260.985
  O      -43.017     247.380    -260.679
  C      -42.791     245.164    -261.608
  O      -43.837     245.622    -262.490
  C      -41.669     244.503    -262.417
  N      -42.164     239.721    -260.640
  C      -43.035     240.547    -261.270
  N      -42.833     241.813    -261.694
  C      -41.577     242.211    -261.430
  C      -40.581     241.483    -260.798
  C      -40.914     240.181    -260.393
  N      -40.025     239.344    -259.755
  N      -39.425     242.226    -260.692
  C      -39.712     243.379    -261.265
  N      -41.004     243.418    -261.719
  O      -37.796     249.042    -260.680
  O      -37.696     247.636    -258.546
  H      -44.280     244.827    -262.839
  H      -37.912     249.736    -260.002
  H      -44.023     240.139    -261.451
  H      -39.022     244.203    -261.376
  H      -42.024     244.102    -263.375
  H      -43.263     244.519    -260.863
  H      -41.511     246.037    -260.105
  H      -41.720     247.326    -262.874
  H      -39.197     247.651    -262.424
  H      -40.323     238.412    -259.522
  H      -39.084     239.669    -259.591
  H      -40.297     248.688    -261.539
  P      -43.758     247.293    -259.257
  C      -42.947     249.709    -258.759
  O      -44.034     248.809    -258.818
  O      -42.592     246.806    -258.272
  O      -44.934     246.375    -259.231
  H      -42.972     246.278    -257.542
  H      -43.336     250.729    -258.746
  H      -42.291     249.593    -259.627
  H      -42.374     249.540    -257.842
  H      -35.142     246.588    -261.844
  H      -35.166     247.682    -260.482
  H      -35.973     248.120    -261.969

 3  4  5  6  7  8  9  10  11  12  22  25  29  30  31  32 0
 6-311+G(2d,p)
 ****
 33  36  37 0
 6-311+G(2d,p)
 ****
 1  2  13  14  15  16  17  18  19  20  21  23  24  26 0
 3-21G
 ****
 27  28  34  35  38  39  40  41  42  43  44  45  46  47  48 0
 3-21G
 ****


