%nproc=1
%NoSave
%Mem=1900MB
#P OB98/GEN NMR

erre ene a

0 1
  C     1155.299    -442.025    -655.458
  O     1154.439    -443.058    -654.988
  P     1154.000    -444.187    -656.048
  C     1153.899    -446.018    -654.181
  O     1153.188    -445.283    -655.203
  C     1152.936    -446.445    -653.081
  O     1152.537    -445.315    -652.292
  C     1151.651    -447.054    -653.605
  O     1151.863    -448.387    -654.026
  C     1150.747    -446.939    -652.361
  O     1150.915    -448.070    -651.474
  C     1151.248    -445.642    -651.723
  N     1150.295    -444.529    -651.854
  C     1149.274    -444.492    -650.896
  O     1149.188    -445.371    -650.033
  N     1148.346    -443.478    -650.992
  C     1148.421    -442.603    -651.921
  N     1147.485    -441.603    -651.977
  C     1149.504    -442.613    -652.953
  C     1150.388    -443.615    -652.875
  O     1155.381    -444.912    -656.400
  O     1153.309    -443.657    -657.261
  H     1150.730    -448.863    -652.023
  H     1155.352    -445.310    -657.300
  H     1149.518    -441.862    -653.731
  H     1151.199    -443.707    -653.558
  H     1151.428    -445.791    -650.640
  H     1149.679    -446.895    -652.639
  H     1151.247    -446.470    -654.419
  H     1153.461    -447.165    -652.411
  H     1146.780    -441.634    -651.254
  H     1154.664    -445.342    -653.757
  H     1147.484    -440.878    -652.665
  H     1154.400    -446.878    -654.644
  P     1151.131    -448.899    -655.348
  C     1153.121    -450.150    -656.373
  O     1151.837    -450.256    -655.741
  O     1151.714    -447.866    -656.461
  O     1149.616    -448.889    -655.320
  H     1151.246    -447.996    -657.318
  H     1153.553    -451.153    -656.458
  H     1153.772    -449.512    -655.789
  H     1152.992    -449.756    -657.407
  H     1155.511    -441.346    -654.658
  H     1154.820    -441.497    -656.256
  H     1156.212    -442.455    -655.813

 3  4  5  6  7  8  9  10  11  12  13  21  23  27  28  29  30  32 0
 6-311+G(2d,p)
 ****
 34  35 0
 6-311+G(2d,p)
 ****
 1  2  14  15  16  17  18  19  20  22  24  25  26 0
 3-21G
 ****
 31  33  36  37  38  39  40  41  42  43  44  45  46 0
 3-21G
 ****


