%nproc=1
%NoSave
%Mem=1900MB
#P OB98/GEN NMR

erre ene a

0 1
  C     -567.316    -466.998      53.223
  O     -567.616    -465.739      53.811
  P     -568.732    -464.824      53.119
  C     -570.715    -466.099      54.225
  O     -570.081    -465.686      53.015
  C     -571.994    -465.283      54.474
  O     -572.920    -465.489      53.375
  C     -572.725    -465.664      55.781
  O     -573.334    -464.493      56.329
  C     -573.830    -466.583      55.298
  O     -574.912    -466.624      56.221
  C     -574.178    -465.947      53.943
  N     -578.086    -469.122      53.451
  C     -577.863    -468.145      54.403
  N     -578.763    -468.062      55.402
  N     -576.843    -467.322      54.376
  C     -576.020    -467.516      53.315
  C     -576.135    -468.443      52.297
  C     -577.255    -469.369      52.349
  O     -577.497    -470.276      51.554
  N     -575.129    -468.326      51.390
  C     -574.366    -467.362      51.859
  N     -574.837    -466.861      53.049
  O     -568.234    -464.724      51.601
  O     -568.889    -463.467      53.731
  H     -575.026    -465.732      56.588
  H     -567.852    -463.829      51.439
  H     -578.868    -469.735      53.530
  H     -573.452    -466.988      51.402
  H     -574.815    -465.060      54.075
  H     -573.445    -467.601      55.167
  H     -579.534    -468.714      55.528
  H     -572.080    -466.146      56.527
  H     -578.608    -467.381      56.139
  H     -571.724    -464.226      54.473
  H     -570.026    -465.945      55.058
  H     -570.956    -467.173      54.171
  P     -573.392    -464.431      57.926
  C     -571.142    -463.104      58.044
  O     -571.879    -464.262      58.425
  O     -573.756    -465.930      58.343
  O     -574.367    -463.432      58.468
  H     -574.208    -465.945      59.223
  H     -570.889    -462.543      58.933
  H     -571.723    -462.469      57.364
  H     -570.220    -463.416      57.536
  H     -566.556    -467.487      53.796
  H     -566.968    -466.850      52.222
  H     -568.198    -467.604      53.208

 3  4  5  6  7  8  9  10  11  12  23  26  30  31 0
 6-311+G(2d,p)
 ****
 33  35  36  37  38 0
 6-311+G(2d,p)
 ****
 1  2  13  14  15  16  17  18  19  20  21  22  24  25 0
 3-21G
 ****
 27  28  29  32  34  39  40  41  42  43  44  45  46  47  48  49 0
 3-21G
 ****


