%nproc=1
%NoSave
%Mem=1900MB
#P OB98/GEN NMR

erre ene a

0 1
  C      -26.543    -157.471     -95.373
  O      -25.893    -156.577     -96.255
  H      -25.864    -158.296     -95.148
  H      -27.446    -157.878     -95.837
  H      -26.802    -156.965     -94.439
  P      -26.691    -155.276     -96.742
  C      -27.643    -156.267     -98.928
  O      -27.927    -155.818     -97.609
  C      -28.928    -156.332     -99.746
  O      -29.803    -157.351     -99.227
  C      -29.728    -155.031     -99.746
  O      -29.186    -154.115    -100.685
  C      -31.100    -155.552    -100.142
  O      -31.128    -155.821    -101.557
  C      -31.170    -156.869     -99.349
  N      -35.378    -155.968     -96.670
  C      -35.176    -155.952     -98.037
  N      -36.239    -155.602     -98.793
  N      -34.032    -156.231     -98.606
  C      -33.044    -156.491     -97.720
  C      -33.118    -156.522     -96.346
  C      -34.403    -156.267     -95.729
  O      -34.629    -156.288     -94.523
  N      -31.891    -156.760     -95.781
  C      -31.085    -156.912     -96.814
  N      -31.733    -156.743     -98.014
  O      -25.882    -154.221     -97.435
  O      -27.386    -154.726     -95.412
  H      -32.005    -156.202    -101.750
  H      -26.827    -154.060     -94.971
  H      -36.278    -155.726     -96.292
  H      -30.029    -157.146     -96.748
  H      -31.746    -157.639     -99.872
  H      -31.905    -154.849     -99.928
  H      -37.034    -155.113     -98.404
  H      -29.798    -154.597     -98.744
  H      -36.098    -155.535     -99.793
  H      -28.660    -156.627    -100.769
  H      -27.189    -157.260     -98.848
  H      -26.930    -155.593     -99.415
  P      -29.331    -152.529    -100.473
  C      -31.176    -152.551    -102.282
  O      -30.819    -152.180    -100.957
  O      -28.260    -151.713    -101.111
  O      -29.429    -152.343     -98.890
  H      -28.551    -152.244     -98.449
  H      -32.188    -152.262    -102.473
  H      -31.081    -153.611    -102.393
  H      -30.527    -152.060    -102.977

 6  7  8  9  10  11  12  13  14  15  26  29  33  34 0
 6-311+G(2d,p)
 ****
 36  38  39  40  41 0
 6-311+G(2d,p)
 ****
 1  2  3  4  5  16  17  18  19  20  21  22  23  24  25 0
 3-21G
 ****
 27  28  30  31  32  35  37  42  43  44  45  46  47 0
 3-21G
 ****
 48  49 0
 3-21G
 ****


