%nproc=1
%NoSave
%Mem=1900MB
#P OB98/GEN NMR

erre ene a

0 1
  C        5.620     -29.697      43.551
  O        6.663     -29.297      42.683
  H        4.683     -29.261      43.194
  H        5.806     -29.339      44.567
  H        5.521     -30.786      43.551
  P        8.161     -29.742      43.035
  C        8.393     -27.434      44.182
  O        8.621     -28.836      44.274
  C        8.939     -26.718      45.415
  O        8.218     -27.130      46.594
  C       10.408     -27.007      45.705
  O       11.241     -26.304      44.805
  C       10.497     -26.570      47.157
  O       10.583     -25.141      47.262
  C        9.140     -27.076      47.709
  N        9.229     -28.374      48.371
  C       10.001     -28.418      49.539
  O       10.570     -27.405      49.944
  N       10.118     -29.617      50.199
  C        9.489     -30.663      49.766
  N        9.644     -31.816      50.470
  C        8.639     -30.651      48.560
  C        8.563     -29.489      47.912
  O        9.129     -29.764      41.892
  O        7.989     -31.192      43.691
  H        9.842     -24.784      46.733
  H        8.098     -31.889      43.015
  H        8.125     -31.545      48.239
  H        7.959     -29.395      47.016
  H        8.726     -26.356      48.427
  H       11.372     -26.981      47.661
  H       10.599     -28.086      45.656
  H        8.767     -25.640      45.284
  H       10.222     -31.771      51.302
  H        7.309     -27.288      44.110
  H        9.081     -32.642      50.321
  H        8.855     -27.026      43.275
  P       12.606     -26.940      44.252
  C       14.079     -25.262      45.528
  O       13.718     -26.625      45.367
  O       12.976     -26.537      42.865
  O       12.382     -28.515      44.421
  H       11.793     -28.859      43.703
  H       14.822     -25.178      46.293
  H       13.215     -24.695      45.806
  H       14.472     -24.886      44.607

 6  7  8  9  10  11  12  13  14  15  16  26  30  31  32  33  35 0
 6-311+G(2d,p)
 ****
 37  38 0
 6-311+G(2d,p)
 ****
 1  2  3  4  5  17  18  19  20  21  22  23  24  25 0
 3-21G
 ****
 27  28  29  34  36  39  40  41  42  43  44  45  46 0
 3-21G
 ****


