%nproc=1
%NoSave
%Mem=1900MB
#P OB98/GEN NMR

erre ene a

0 1
  C      -22.222    -123.418     255.271
  O      -21.473    -124.518     254.793
  P      -21.302    -125.823     255.703
  C      -20.540    -126.246     258.121
  O      -20.401    -125.421     256.969
  C      -20.078    -125.495     259.369
  O      -20.913    -124.342     259.598
  C      -20.153    -126.317     260.651
  O      -19.083    -127.238     260.723
  C      -20.121    -125.218     261.706
  O      -18.771    -124.787     261.948
  C      -20.926    -124.101     261.025
  N      -24.331    -121.137     263.398
  C      -23.001    -121.008     263.208
  N      -22.154    -121.864     262.598
  C      -22.810    -122.957     262.180
  C      -24.156    -123.247     262.333
  C      -24.942    -122.264     262.956
  N      -26.310    -122.359     263.101
  N      -24.445    -124.489     261.800
  C      -23.295    -124.940     261.343
  N      -22.293    -124.022     261.492
  O      -20.863    -127.055     254.982
  O      -22.753    -126.031     256.348
  H      -18.246    -125.581     262.157
  H      -23.105    -126.900     256.075
  H      -22.560    -120.091     263.589
  H      -23.142    -125.907     260.884
  H      -20.470    -123.116     261.182
  H      -20.535    -125.542     262.665
  H      -21.116    -126.837     260.704
  H      -19.053    -125.142     259.194
  H      -19.926    -127.141     257.979
  H      -26.791    -121.536     263.428
  H      -26.810    -123.027     262.521
  H      -21.585    -126.550     258.228
  P      -19.075    -128.362     261.863
  C      -19.665    -128.435     264.358
  O      -19.327    -127.612     263.258
  O      -17.912    -129.296     261.842
  O      -20.454    -129.145     261.629
  H      -20.343    -130.080     261.880
  H      -20.718    -128.726     264.288
  H      -19.513    -127.868     265.279
  H      -19.037    -129.330     264.384
  H      -22.228    -122.643     254.533
  H      -21.779    -123.049     256.172
  H      -23.226    -123.729     255.469

 3  4  5  6  7  8  9  10  11  12  22  25  29  30  31  32 0
 6-311+G(2d,p)
 ****
 33  36  37 0
 6-311+G(2d,p)
 ****
 1  2  13  14  15  16  17  18  19  20  21  23  24  26 0
 3-21G
 ****
 27  28  34  35  38  39  40  41  42  43  44  45  46  47  48 0
 3-21G
 ****


