%nproc=1
%NoSave
%Mem=1900MB
#P OB98/GEN NMR

erre ene a

0 1
  C     -124.279     376.731      88.186
  O     -123.118     377.052      87.449
  H     -124.776     375.884      87.704
  H     -124.974     377.576      88.204
  H     -124.014     376.443      89.207
  P     -122.270     378.342      87.887
  C     -122.543     379.547      85.609
  O     -121.656     378.898      86.508
  C     -121.966     379.529      84.194
  O     -120.643     380.107      84.168
  C     -121.792     378.141      83.589
  O     -123.015     377.545      83.185
  C     -120.890     378.475      82.415
  O     -121.669     379.087      81.367
  C     -119.924     379.499      83.057
  N     -118.680     378.890      83.528
  C     -117.592     378.929      82.645
  O     -117.703     379.450      81.536
  N     -116.411     378.338      83.027
  C     -116.327     377.746      84.176
  N     -115.147     377.137      84.486
  C     -117.441     377.700      85.144
  C     -118.575     378.281      84.759
  O     -121.283     378.142      88.992
  O     -123.377     379.452      88.215
  H     -122.384     378.465      81.145
  H     -122.902     380.270      88.505
  H     -117.321     377.188      86.087
  H     -119.446     378.272      85.406
  H     -119.681     380.302      82.351
  H     -120.400     377.598      81.980
  H     -121.248     377.482      84.274
  H     -122.607     380.165      83.568
  H     -114.422     377.154      83.782
  H     -122.693     380.574      85.959
  H     -115.092     376.435      85.217
  H     -123.509     379.032      85.591
  P     -123.545     376.275      84.016
  C     -122.927     374.348      82.372
  O     -123.946     375.157      82.938
  O     -124.951     376.782      84.582
  O     -122.634     375.783      85.099
  H     -124.859     377.150      85.481
  H     -123.362     373.660      81.678
  H     -122.430     373.805      83.149
  H     -122.220     374.969      81.863

 6  7  8  9  10  11  12  13  14  15  16  26  30  31  32  33  35 0
 6-311+G(2d,p)
 ****
 37  38 0
 6-311+G(2d,p)
 ****
 1  2  3  4  5  17  18  19  20  21  22  23  24  25 0
 3-21G
 ****
 27  28  29  34  36  39  40  41  42  43  44  45  46 0
 3-21G
 ****


