%nproc=1
%NoSave
%Mem=1900MB
#P OB98/GEN NMR

erre ene a

0 1
  C      256.558    -270.344    -292.596
  O      257.801    -271.052    -292.729
  P      258.222    -272.038    -291.534
  C      258.614    -274.193    -292.989
  O      259.177    -273.143    -292.203
  C      259.706    -275.167    -293.418
  O      260.572    -274.556    -294.412
  C      260.634    -275.613    -292.289
  O      259.997    -276.545    -291.430
  C      261.807    -276.172    -293.085
  O      261.527    -277.497    -293.544
  C      261.862    -275.194    -294.290
  N      262.938    -274.215    -294.188
  C      264.238    -274.724    -294.191
  O      264.483    -275.938    -294.264
  N      265.248    -273.805    -294.108
  C      265.089    -272.459    -293.974
  O      266.038    -271.670    -293.911
  C      263.694    -271.966    -293.919
  C      262.698    -272.855    -294.026
  O      256.841    -272.814    -291.268
  O      258.788    -271.319    -290.351
  H      256.331    -272.963    -292.089
  H      260.741    -277.424    -294.125
  H      266.191    -274.151    -294.119
  H      263.535    -270.909    -293.797
  H      261.666    -272.526    -293.979
  H      262.014    -275.761    -295.223
  H      262.735    -276.209    -292.490
  H      260.962    -274.734    -291.706
  H      259.228    -276.046    -293.880
  H      258.125    -273.776    -293.877
  H      257.846    -274.696    -292.392
  P      260.200    -276.339    -289.851
  C      257.837    -275.569    -289.017
  O      258.768    -276.614    -289.175
  O      260.376    -274.750    -289.764
  O      261.340    -277.117    -289.286
  H      259.722    -274.270    -290.312
  H      256.839    -275.999    -288.873
  H      257.810    -274.921    -289.898
  H      258.089    -274.974    -288.138
  H      256.404    -269.728    -293.457
  H      256.589    -269.730    -291.720
  H      255.755    -271.046    -292.512

 3  4  5  6  7  8  9  10  11  12  13  24  28  29  30  31  32 0
 6-311+G(2d,p)
 ****
 33  34 0
 6-311+G(2d,p)
 ****
 1  2  14  15  16  17  18  19  20  21  22  23  25  26  27 0
 3-21G
 ****
 35  36  37  38  39  40  41  42  43  44  45 0
 3-21G
 ****


