%nproc=1
%NoSave
%Mem=1900MB
#P OB98/GEN NMR

erre ene a

0 1
  C       34.386      46.701      75.891
  O       34.385      48.092      76.204
  P       33.206      49.103      75.842
  C       34.459      51.315      75.197
  O       33.708      50.589      76.159
  C       35.405      52.352      75.826
  O       36.340      51.680      76.709
  C       36.244      53.038      74.748
  O       35.715      54.132      74.024
  C       37.577      53.327      75.422
  O       37.639      54.643      75.974
  C       37.642      52.279      76.536
  N       42.568      50.912      76.742
  C       41.986      52.128      77.043
  N       42.824      53.126      77.396
  N       40.701      52.349      76.983
  C       39.987      51.294      76.532
  C       40.452      50.046      76.184
  C       41.872      49.792      76.309
  O       42.437      48.730      76.067
  N       39.435      49.234      75.749
  C       38.363      49.997      75.809
  N       38.645      51.257      76.287
  O       31.853      48.725      76.344
  O       33.159      49.055      74.229
  H       38.573      54.850      76.153
  H       32.223      49.190      73.974
  H       43.562      50.790      76.828
  H       37.363      49.687      75.528
  H       37.903      52.738      77.497
  H       38.399      53.255      74.698
  H       43.828      53.055      77.345
  H       36.463      52.280      73.984
  H       42.428      54.069      77.405
  H       34.851      53.053      76.455
  H       33.737      51.806      74.538
  H       35.031      50.626      74.573
  P       35.239      54.118      72.496
  C       37.194      55.557      71.678
  O       35.787      55.448      71.795
  O       33.664      54.391      72.580
  O       35.522      52.851      71.758
  H       33.231      54.149      71.741
  H       37.454      56.601      71.482
  H       37.542      54.942      70.844
  H       37.688      55.236      72.600
  H       35.293      46.257      76.245
  H       34.316      46.574      74.831
  H       33.550      46.229      76.363

 3  4  5  6  7  8  9  10  11  12  23  26  30  31 0
 6-311+G(2d,p)
 ****
 33  35  36  37  38 0
 6-311+G(2d,p)
 ****
 1  2  13  14  15  16  17  18  19  20  21  22  24  25 0
 3-21G
 ****
 27  28  29  32  34  39  40  41  42  43  44  45  46  47  48  49 0
 3-21G
 ****


