%nproc=1
%NoSave
%Mem=1900MB
#P OB98/GEN NMR

erre ene a

0 1
  C       12.862      66.133      19.182
  O       14.212      65.723      19.270
  H       12.733      67.040      19.779
  H       12.205      65.357      19.583
  H       12.589      66.354      18.147
  P       14.707      64.499      18.362
  C       15.774      63.320      20.393
  O       15.981      63.860      19.095
  C       17.096      63.287      21.157
  O       18.076      62.520      20.424
  C       17.719      64.660      21.368
  O       17.059      65.369      22.399
  C       19.156      64.277      21.678
  O       19.298      63.877      23.050
  C       19.374      63.080      20.727
  N       20.088      63.448      19.506
  C       21.473      63.311      19.532
  O       22.096      62.936      20.524
  N       22.128      63.650      18.377
  C       21.559      64.208      17.270
  O       22.204      64.579      16.294
  C       20.097      64.353      17.307
  C       19.440      63.971      18.404
  O       14.898      64.804      16.915
  O       13.575      63.386      18.580
  H       20.249      63.702      23.188
  H       13.006      63.344      17.789
  H       23.131      63.571      18.381
  H       19.608      64.777      16.442
  H       18.363      64.076      18.453
  H       19.946      62.292      21.233
  H       19.849      65.102      21.513
  H       17.699      65.230      20.433
  H       16.924      62.784      22.119
  H       15.385      62.301      20.293
  H       15.035      63.933      20.920
  P       16.277      66.723      22.062
  C       17.879      68.232      23.388
  O       16.544      67.754      23.260
  O       14.844      66.556      21.680
  O       17.114      67.355      20.852
  H       16.539      67.436      20.068
  H       17.938      68.908      24.215
  H       18.163      68.740      22.490
  H       18.539      67.406      23.555

 6  7  8  9  10  11  12  13  14  15  16  26  31  32  33  34  35 0
 6-311+G(2d,p)
 ****
 36  37 0
 6-311+G(2d,p)
 ****
 1  2  3  4  5  17  18  19  20  21  22  23  24  25 0
 3-21G
 ****
 27  28  29  30  38  39  40  41  42  43  44  45 0
 3-21G
 ****


