%nproc=1
%NoSave
%Mem=1900MB
#P OB98/GEN NMR

erre ene a

0 1
  C     -577.533    -470.699     211.193
  O     -577.472    -470.264     209.857
  P     -578.249    -471.136     208.756
  C     -580.372    -469.805     208.017
  O     -579.002    -470.116     207.774
  C     -580.827    -468.670     207.077
  O     -580.021    -467.485     207.302
  C     -580.663    -469.001     205.601
  O     -581.714    -469.837     205.138
  C     -580.679    -467.625     204.958
  O     -582.015    -467.145     204.773
  C     -579.944    -466.774     206.039
  N     -578.562    -466.472     205.675
  C     -578.370    -465.298     204.935
  O     -579.307    -464.578     204.598
  N     -577.072    -465.023     204.579
  C     -575.978    -465.819     204.823
  O     -574.846    -465.544     204.428
  C     -576.246    -467.059     205.574
  C     -577.506    -467.327     205.951
  O     -579.443    -471.825     209.568
  O     -577.392    -472.139     208.046
  H     -581.934    -466.280     204.339
  H     -579.609    -472.728     209.206
  H     -576.912    -464.172     204.074
  H     -575.422    -467.702     205.787
  H     -577.729    -468.239     206.492
  H     -580.475    -465.822     206.193
  H     -580.189    -467.596     203.987
  H     -579.693    -469.479     205.426
  H     -581.867    -468.427     207.311
  H     -580.499    -469.487     209.057
  H     -580.975    -470.697     207.844
  P     -581.301    -471.222     204.421
  C     -583.461    -472.411     205.290
  O     -582.679    -472.000     204.188
  O     -580.583    -471.975     205.626
  O     -580.426    -471.003     203.206
  H     -580.968    -471.758     206.487
  H     -583.416    -471.669     206.108
  H     -583.105    -473.372     205.656
  H     -584.501    -472.508     204.983
  H     -576.975    -470.028     211.812
  H     -577.118    -471.682     211.267
  H     -578.553    -470.717     211.516

 3  4  5  6  7  8  9  10  11  12  13  23  28  29  30  31  32 0
 6-311+G(2d,p)
 ****
 33  34 0
 6-311+G(2d,p)
 ****
 1  2  14  15  16  17  18  19  20  21  22  24  25  26 0
 3-21G
 ****
 27  35  36  37  38  39  40  41  42  43  44  45 0
 3-21G
 ****


