%nproc=1
%NoSave
%Mem=1900MB
#P OB98/GEN NMR

erre ene a

0 1
  C      -37.501     238.846     252.407
  O      -36.672     239.441     253.413
  P      -35.193     239.921     253.028
  C      -34.926     241.991     251.510
  O      -35.199     241.518     252.824
  C      -35.185     243.501     251.412
  O      -36.618     243.773     251.373
  C      -34.612     244.277     252.608
  O      -34.176     245.583     252.196
  C      -35.824     244.456     253.506
  O      -35.644     245.534     254.426
  C      -36.919     244.668     252.463
  N      -41.599     246.630     253.220
  C      -40.503     247.122     252.593
  N      -39.304     246.534     252.413
  C      -39.290     245.300     252.944
  C      -40.332     244.658     253.604
  C      -41.530     245.380     253.745
  N      -42.632     244.888     254.410
  N      -39.947     243.400     254.020
  C      -38.681     243.300     253.657
  N      -38.251     244.409     252.976
  O      -34.527     239.145     251.933
  O      -34.395     239.757     254.412
  H      -34.952     245.267     255.059
  H      -33.513     239.375     254.228
  H      -40.612     248.128     252.188
  H      -38.036     242.459     253.875
  H      -36.910     245.689     252.066
  H      -35.997     243.534     254.085
  H      -33.786     243.775     253.123
  H      -34.762     243.873     250.468
  H      -35.546     241.456     250.788
  H      -43.408     245.518     254.561
  H      -42.544     244.025     254.927
  H      -33.889     241.745     251.249
  P      -32.578     245.790     252.065
  C      -31.869     244.459     249.924
  O      -32.253     245.688     250.496
  O      -31.792     244.890     252.963
  O      -32.416     247.345     252.412
  H      -33.010     247.936     251.912
  H      -31.826     244.578     248.835
  H      -32.603     243.673     250.155
  H      -30.886     244.164     250.295
  H      -38.448     238.587     252.833
  H      -37.026     237.965     252.029
  H      -37.648     239.542     251.608

 3  4  5  6  7  8  9  10  11  12  22  25  29  30  31  32 0
 6-311+G(2d,p)
 ****
 33  36  37 0
 6-311+G(2d,p)
 ****
 1  2  13  14  15  16  17  18  19  20  21  23  24  26 0
 3-21G
 ****
 27  28  34  35  38  39  40  41  42  43  44  45  46  47  48 0
 3-21G
 ****


