%nproc=1
%NoSave
%Mem=1900MB
#P OB98/GEN NMR

erre ene a

0 1
  C     -892.430    -322.224    1792.997
  O     -892.730    -320.986    1793.651
  P     -893.590    -319.898    1792.866
  C     -895.190    -318.778    1794.595
  O     -895.010    -319.770    1793.586
  C     -895.890    -319.383    1795.821
  O     -895.170    -320.509    1796.341
  C     -896.050    -318.399    1796.973
  O     -897.180    -317.561    1796.806
  C     -896.270    -319.349    1798.137
  O     -897.660    -319.782    1798.142
  C     -895.340    -320.510    1797.798
  N     -892.970    -319.539    1802.172
  C     -894.330    -319.578    1801.861
  N     -895.170    -319.334    1802.886
  N     -894.790    -319.842    1800.673
  C     -893.840    -320.100    1799.765
  C     -892.480    -320.093    1799.926
  C     -891.960    -319.779    1801.244
  O     -890.770    -319.718    1801.553
  N     -891.840    -320.382    1798.760
  C     -892.810    -320.586    1797.903
  N     -894.040    -320.419    1798.443
  O     -893.950    -320.653    1791.507
  O     -892.870    -318.599    1792.630
  H     -897.880    -319.978    1797.209
  H     -894.060    -319.987    1790.781
  H     -892.660    -319.326    1803.093
  H     -892.650    -320.871    1796.846
  H     -895.760    -321.485    1798.055
  H     -896.090    -318.876    1799.108
  H     -894.870    -319.173    1803.842
  H     -895.120    -317.818    1797.115
  H     -896.160    -319.384    1802.705
  H     -896.890    -319.729    1795.508
  H     -895.780    -317.948    1794.180
  H     -894.210    -318.358    1794.844
  P     -897.270    -316.658    1795.470
  C     -899.460    -317.347    1794.235
  O     -898.050    -317.541    1794.381
  O     -895.760    -316.678    1794.932
  O     -897.760    -315.279    1795.694
  H     -895.550    -315.833    1794.483
  H     -899.800    -317.912    1793.367
  H     -899.670    -316.278    1794.079
  H     -900.000    -317.717    1795.133
  H     -891.850    -322.842    1793.651
  H     -891.874    -322.030    1792.104
  H     -893.342    -322.726    1792.748

 3  4  5  6  7  8  9  10  11  12  23  26  30  31 0
 6-311+G(2d,p)
 ****
 33  35  36  37  38 0
 6-311+G(2d,p)
 ****
 1  2  13  14  15  16  17  18  19  20  21  22  24  25 0
 3-21G
 ****
 27  28  29  32  34  39  40  41  42  43  44  45  46  47  48  49 0
 3-21G
 ****


