%nproc=1
%NoSave
%Mem=1900MB
#P OB98/GEN NMR

erre ene a

0 1
  C      124.851    -147.907     286.640
  O      125.175    -149.280     286.656
  P      126.392    -149.819     285.770
  C      127.119    -149.748     283.305
  O      126.101    -149.428     284.241
  C      126.530    -149.882     281.898
  O      125.869    -148.651     281.516
  C      127.573    -150.134     280.814
  O      128.011    -151.480     280.830
  C      126.804    -149.736     279.567
  O      125.939    -150.804     279.131
  C      125.953    -148.550     280.078
  N      126.015    -144.889     276.515
  C      125.470    -146.136     276.527
  N      125.539    -147.059     277.503
  C      126.266    -146.616     278.541
  C      126.899    -145.380     278.655
  C      126.735    -144.488     277.592
  N      127.215    -143.198     277.591
  N      127.576    -145.302     279.865
  C      127.357    -146.470     280.456
  N      126.513    -147.257     279.715
  O      126.773    -151.249     285.996
  O      127.607    -148.843     286.161
  H      125.606    -151.248     279.940
  H      128.341    -149.372     286.545
  H      124.916    -146.417     275.637
  H      127.763    -146.765     281.411
  H      124.927    -148.588     279.698
  H      127.451    -149.479     278.724
  H      128.425    -149.453     280.944
  H      125.785    -150.686     281.915
  H      127.582    -150.698     283.599
  H      126.914    -142.598     276.838
  H      127.487    -142.780     278.485
  H      127.892    -148.959     283.329
  P      129.458    -151.864     280.264
  C      130.712    -151.341     278.091
  O      129.447    -151.526     278.699
  O      129.963    -153.220     280.636
  O      130.409    -150.715     280.866
  H      131.296    -151.080     281.034
  H      131.089    -150.345     278.339
  H      130.609    -151.431     277.004
  H      131.430    -152.096     278.429
  H      124.017    -147.730     287.287
  H      124.598    -147.612     285.643
  H      125.692    -147.338     286.978

 3  4  5  6  7  8  9  10  11  12  22  25  29  30  31  32 0
 6-311+G(2d,p)
 ****
 33  36  37 0
 6-311+G(2d,p)
 ****
 1  2  13  14  15  16  17  18  19  20  21  23  24  26 0
 3-21G
 ****
 27  28  34  35  38  39  40  41  42  43  44  45  46  47  48 0
 3-21G
 ****


