%nproc=1
%NoSave
%Mem=1900MB
#P OB98/GEN NMR

erre ene a

0 1
  C      -79.776      35.109     115.538
  O      -79.943      35.743     116.789
  H      -80.762      34.872     115.128
  H      -79.220      34.176     115.671
  H      -79.250      35.761     114.836
  P      -78.654      36.450     117.427
  C      -77.554      34.713     119.003
  O      -77.572      35.294     117.710
  C      -76.122      34.364     119.412
  O      -75.603      33.371     118.488
  C      -75.165      35.564     119.392
  O      -74.261      35.451     120.496
  C      -74.402      35.386     118.089
  O      -73.118      36.008     118.116
  C      -74.353      33.866     117.973
  N      -70.864      32.832     114.485
  C      -70.723      33.143     115.824
  N      -69.463      33.193     116.305
  N      -71.732      33.384     116.622
  C      -72.937      33.261     116.011
  C      -73.207      32.965     114.695
  C      -72.079      32.728     113.815
  O      -72.139      32.472     112.616
  N      -74.558      32.968     114.452
  C      -75.101      33.265     115.618
  N      -74.159      33.446     116.595
  O      -79.153      36.864     118.891
  O      -78.132      37.631     116.675
  H      -73.246      36.934     118.419
  H      -79.157      37.837     118.976
  H      -70.051      32.669     113.913
  H      -76.162      33.371     115.809
  H      -73.539      33.426     118.564
  H      -74.976      35.823     117.263
  H      -68.643      32.972     115.760
  H      -75.679      36.525     119.440
  H      -69.336      33.383     117.293
  H      -76.144      33.896     120.402
  H      -78.162      33.801     118.993
  H      -77.985      35.417     119.725
  P      -74.711      36.140     121.876
  C      -74.546      38.682     121.399
  O      -75.397      37.552     121.535
  O      -73.318      36.552     122.550
  O      -75.504      35.243     122.768
  H      -73.131      35.967     123.310
  H      -75.135      39.547     121.174
  H      -73.848      38.509     120.607
  H      -74.015      38.841     122.314

 6  7  8  9  10  11  12  13  14  15  26  29  33  34 0
 6-311+G(2d,p)
 ****
 36  38  39  40  41 0
 6-311+G(2d,p)
 ****
 1  2  3  4  5  16  17  18  19  20  21  22  23  24  25 0
 3-21G
 ****
 27  28  30  31  32  35  37  42  43  44  45  46  47 0
 3-21G
 ****
 48  49 0
 3-21G
 ****


