%nproc=1
%NoSave
%Mem=1900MB
#P OB98/GEN NMR

erre ene a

0 1
  C       21.679      -9.232     -34.275
  O       22.634      -8.262     -34.650
  H       20.788      -9.100     -34.893
  H       21.399      -9.108     -33.227
  H       22.073     -10.239     -34.440
  P       24.020      -8.195     -33.849
  C       25.514     -10.068     -34.809
  O       25.164      -8.690     -34.860
  C       26.210     -10.487     -36.110
  O       25.303     -10.205     -37.205
  C       27.515      -9.716     -36.352
  O       28.627     -10.572     -36.604
  C       27.129      -8.708     -37.428
  O       28.205      -8.274     -38.234
  C       26.007      -9.421     -38.187
  N       25.089      -8.514     -38.874
  C       25.357      -8.225     -40.210
  O       26.296      -8.681     -40.857
  N       24.479      -7.363     -40.816
  C       23.401      -6.769     -40.231
  O       22.648      -6.008     -40.827
  C       23.186      -7.091     -38.812
  C       24.027      -7.934     -38.208
  O       24.029      -8.870     -32.519
  O       24.315      -6.627     -33.714
  H       27.831      -7.682     -38.920
  H       24.134      -6.339     -32.799
  H       24.653      -7.157     -41.787
  H       22.347      -6.627     -38.313
  H       23.897      -8.196     -37.162
  H       26.419     -10.102     -38.934
  H       26.717      -7.819     -36.937
  H       27.818      -9.171     -35.450
  H       26.376     -11.569     -36.089
  H       24.593     -10.644     -34.669
  H       26.181     -10.247     -33.958
  P       30.002     -10.552     -35.796
  C       29.574     -12.593     -34.195
  O       30.309     -12.031     -35.274
  O       30.163      -9.444     -34.811
  O       31.115     -10.343     -36.945
  H       31.840      -9.830     -36.534
  H       29.929     -13.583     -33.999
  H       28.536     -12.630     -34.452
  H       29.704     -11.989     -33.322

 6  7  8  9  10  11  12  13  14  15  16  26  31  32  33  34  35 0
 6-311+G(2d,p)
 ****
 36  37 0
 6-311+G(2d,p)
 ****
 1  2  3  4  5  17  18  19  20  21  22  23  24  25 0
 3-21G
 ****
 27  28  29  30  38  39  40  41  42  43  44  45 0
 3-21G
 ****


