%nproc=1
%NoSave
%Mem=1900MB
#P OB98/GEN NMR

erre ene a

0 1
  C      -37.317     -97.723    -494.552
  O      -38.227     -98.784    -494.775
  H      -36.585     -98.045    -493.806
  H      -37.836     -96.837    -494.174
  H      -36.792     -97.481    -495.480
  P      -39.558     -98.473    -495.617
  C      -40.877     -98.795    -493.417
  O      -40.755     -99.163    -494.790
  C      -42.139     -99.390    -492.794
  O      -43.324     -98.845    -493.416
  C      -42.269    -100.897    -492.963
  O      -41.309    -101.656    -492.269
  C      -43.746    -101.118    -492.677
  O      -44.022    -101.195    -491.279
  C      -44.372     -99.829    -493.272
  N      -45.055    -100.075    -494.531
  C      -46.124    -100.966    -494.485
  O      -46.482    -101.544    -493.455
  N      -46.759    -101.203    -495.676
  C      -46.405    -100.687    -496.886
  O      -47.007    -100.954    -497.923
  C      -45.244     -99.779    -496.884
  C      -44.630     -99.523    -495.726
  O      -39.518     -98.858    -497.067
  O      -39.811     -96.910    -495.369
  H      -44.985    -101.334    -491.185
  H      -40.456     -96.547    -496.025
  H      -47.550    -101.831    -495.657
  H      -44.933     -99.360    -497.830
  H      -43.776     -98.855    -495.698
  H      -45.102     -99.406    -492.565
  H      -44.126    -102.037    -493.130
  H      -42.124    -101.132    -494.029
  H      -42.160     -99.105    -491.733
  H      -40.929     -97.702    -493.370
  H      -39.988     -99.131    -492.868
  P      -40.181    -102.530    -492.981
  C      -40.817    -104.883    -492.027
  O      -39.879    -103.812    -492.066
  O      -39.019    -101.787    -493.561
  O      -41.003    -103.182    -494.213
  H      -40.381    -103.260    -494.965
  H      -40.457    -105.648    -491.371
  H      -40.940    -105.285    -493.011
  H      -41.758    -104.520    -491.669

 6  7  8  9  10  11  12  13  14  15  16  26  31  32  33  34  35 0
 6-311+G(2d,p)
 ****
 36  37 0
 6-311+G(2d,p)
 ****
 1  2  3  4  5  17  18  19  20  21  22  23  24  25 0
 3-21G
 ****
 27  28  29  30  38  39  40  41  42  43  44  45 0
 3-21G
 ****


