%nproc=1
%NoSave
%Mem=1900MB
#P OB98/GEN NMR

erre ene a

0 1
  C      169.171      37.550      29.226
  O      168.764      38.901      29.102
  P      169.841      39.982      28.619
  C      170.930      40.154      30.974
  O      170.288      40.831      29.906
  C      171.180      41.112      32.139
  O      171.649      40.355      33.296
  C      172.232      42.193      31.846
  O      171.843      43.379      32.553
  C      173.483      41.612      32.475
  O      174.483      42.585      32.734
  C      172.880      40.967      33.728
  N      173.775      39.995      34.354
  C      174.750      40.488      35.215
  O      174.901      41.680      35.474
  N      175.609      39.557      35.736
  C      175.646      38.231      35.419
  O      176.516      37.472      35.831
  C      174.592      37.768      34.504
  C      173.718      38.655      34.023
  O      168.966      41.016      27.768
  O      170.974      39.423      27.826
  H      175.134      42.183      33.338
  H      169.067      40.843      26.813
  H      176.316      39.895      36.370
  H      174.578      36.716      34.248
  H      172.943      38.344      33.330
  H      172.614      41.740      34.460
  H      173.912      40.858      31.804
  H      172.353      42.407      30.780
  H      170.226      41.576      32.421
  H      171.885      39.757      30.625
  H      170.313      39.308      31.296
  P      171.817      44.765      31.741
  C      174.206      45.653      32.319
  O      172.810      45.762      32.503
  O      170.357      45.306      32.123
  O      172.030      44.603      30.271
  H      170.149      45.189      33.064
  H      174.455      45.340      31.302
  H      174.608      44.927      33.029
  H      174.665      46.627      32.512
  H      168.344      36.957      29.556
  H      169.966      37.481      29.939
  H      169.511      37.191      28.277

 3  4  5  6  7  8  9  10  11  12  13  23  28  29  30  31  32 0
 6-311+G(2d,p)
 ****
 33  34 0
 6-311+G(2d,p)
 ****
 1  2  14  15  16  17  18  19  20  21  22  24  25  26 0
 3-21G
 ****
 27  35  36  37  38  39  40  41  42  43  44  45 0
 3-21G
 ****


