%nproc=1
%NoSave
%Mem=1900MB
#P OB98/GEN NMR

erre ene a

0 1
  C       61.167     -39.030     435.962
  O       60.816     -39.349     434.613
  P       60.397     -38.138     433.650
  C       57.924     -38.706     434.232
  O       58.862     -38.326     433.234
  C       56.584     -39.068     433.587
  O       55.993     -37.929     432.940
  C       56.711     -40.123     432.500
  O       56.849     -41.411     433.069
  C       55.416     -39.931     431.720
  O       54.354     -40.747     432.241
  C       55.104     -38.431     431.925
  N       55.214     -37.662     430.698
  C       54.157     -36.785     430.430
  O       53.196     -36.718     431.198
  N       54.204     -36.032     429.283
  C       55.205     -36.162     428.469
  N       55.194     -35.393     427.347
  C       56.325     -37.093     428.703
  C       56.266     -37.808     429.826
  O       61.190     -38.453     432.297
  O       60.745     -36.789     434.191
  H       54.500     -41.641     431.868
  H       61.444     -37.624     431.854
  H       57.134     -37.173     427.990
  H       57.046     -38.517     430.079
  H       54.086     -38.305     432.313
  H       55.539     -40.207     430.668
  H       57.568     -39.896     431.856
  H       55.904     -39.422     434.375
  H       54.409     -34.767     427.218
  H       57.785     -37.893     434.947
  H       55.917     -35.417     426.644
  H       58.331     -39.553     434.795
  P       58.327     -41.917     433.418
  C       58.658     -42.567     430.958
  O       58.670     -43.013     432.299
  O       58.069     -42.835     434.709
  O       59.365     -40.877     433.674
  H       58.916     -43.132     435.084
  H       59.105     -43.339     430.329
  H       59.241     -41.647     430.854
  H       57.628     -42.396     430.632
  H       61.423     -39.927     436.486
  H       60.336     -38.560     436.445
  H       62.005     -38.364     435.965

 3  4  5  6  7  8  9  10  11  12  13  21  23  27  28  29  30  32 0
 6-311+G(2d,p)
 ****
 34  35 0
 6-311+G(2d,p)
 ****
 1  2  14  15  16  17  18  19  20  22  24  25  26 0
 3-21G
 ****
 31  33  36  37  38  39  40  41  42  43  44  45  46 0
 3-21G
 ****


