%nproc=1
%NoSave
%Mem=1900MB
#P OB98/GEN NMR

erre ene a

0 1
  C      -63.125    -171.421    -202.651
  O      -64.269    -172.230    -202.471
  H      -63.405    -170.372    -202.503
  H      -62.736    -171.541    -203.664
  H      -62.351    -171.683    -201.923
  P      -64.056    -173.817    -202.528
  C      -64.707    -173.817    -205.050
  O      -63.749    -174.176    -204.064
  C      -65.238    -175.079    -205.738
  O      -64.181    -175.628    -206.575
  C      -65.662    -176.180    -204.750
  O      -66.808    -176.855    -205.273
  C      -64.465    -177.116    -204.745
  O      -64.785    -178.443    -204.348
  C      -64.003    -177.014    -206.201
  N      -62.616    -177.423    -206.384
  C      -62.363    -178.781    -206.571
  O      -63.230    -179.648    -206.664
  N      -61.035    -179.133    -206.640
  C      -59.968    -178.289    -206.526
  O      -58.802    -178.663    -206.575
  C      -60.298    -176.867    -206.322
  C      -61.587    -176.508    -206.259
  O      -65.534    -174.400    -202.306
  O      -63.069    -174.372    -201.559
  H      -65.702    -174.543    -201.357
  H      -64.006    -179.009    -204.528
  H      -60.836    -180.113    -206.775
  H      -59.479    -176.169    -206.219
  H      -61.859    -175.471    -206.095
  H      -64.653    -177.611    -206.855
  H      -63.695    -176.738    -204.067
  H      -65.881    -175.791    -203.755
  H      -66.066    -174.804    -206.402
  H      -64.232    -173.173    -205.794
  H      -65.528    -173.272    -204.574
  P      -68.232    -176.114    -205.132
  C      -68.207    -176.821    -202.610
  O      -68.399    -175.791    -203.565
  O      -69.242    -177.322    -205.398
  O      -68.374    -174.945    -206.048
  H      -68.943    -178.172    -205.036
  H      -68.357    -176.428    -201.626
  H      -67.211    -177.203    -202.693
  H      -68.908    -177.609    -202.790

 6  7  8  9  10  11  12  13  14  15  16  27  31  32  33  34  35 0
 6-311+G(2d,p)
 ****
 36  37 0
 6-311+G(2d,p)
 ****
 1  2  3  4  5  17  18  19  20  21  22  23  24  25 0
 3-21G
 ****
 26  28  29  30  38  39  40  41  42  43  44  45 0
 3-21G
 ****


