%nproc=1
%NoSave
%Mem=1900MB
#P OB98/GEN NMR

erre ene a

0 1
  C     -251.919      57.460     604.865
  O     -250.634      56.949     604.495
  P     -250.377      55.384     604.737
  C     -249.276      55.519     607.086
  O     -250.406      55.106     606.325
  C     -249.427      55.126     608.565
  O     -249.420      53.676     608.727
  C     -248.311      55.675     609.470
  O     -248.888      55.949     610.746
  C     -247.368      54.495     609.602
  O     -246.508      54.631     610.731
  C     -248.378      53.348     609.658
  N     -245.430      49.548     611.416
  C     -245.867      50.696     611.983
  N     -246.634      51.671     611.436
  C     -246.980      51.340     610.179
  C     -246.609      50.218     609.468
  C     -245.791      49.287     610.134
  N     -245.320      48.128     609.548
  N     -247.133      50.255     608.186
  C     -247.806      51.390     608.137
  N     -247.765      52.067     609.322
  O     -248.828      55.208     604.358
  O     -251.252      54.491     603.914
  H     -245.878      55.350     610.541
  H     -248.752      54.730     603.503
  H     -245.549      50.858     613.009
  H     -248.320      51.776     607.262
  H     -248.821      53.238     610.657
  H     -246.735      54.420     608.695
  H     -247.812      56.575     609.086
  H     -250.395      55.483     608.924
  H     -249.153      56.607     607.022
  H     -244.719      47.541     610.086
  H     -245.543      47.944     608.579
  H     -248.368      55.083     606.652
  P     -248.693      57.432     611.324
  C     -246.480      57.154     612.668
  O     -247.108      57.641     611.489
  O     -249.227      57.324     612.834
  O     -249.412      58.487     610.549
  H     -249.537      58.198     613.141
  H     -245.519      56.705     612.397
  H     -247.087      56.392     613.176
  H     -246.309      57.983     613.357
  H     -251.960      58.508     604.654
  H     -252.079      57.300     605.911
  H     -252.678      56.954     604.307

 3  4  5  6  7  8  9  10  11  12  22  25  29  30  31  32 0
 6-311+G(2d,p)
 ****
 33  36  37 0
 6-311+G(2d,p)
 ****
 1  2  13  14  15  16  17  18  19  20  21  23  24  26 0
 3-21G
 ****
 27  28  34  35  38  39  40  41  42  43  44  45  46  47  48 0
 3-21G
 ****


