%nproc=1
%NoSave
%Mem=1900MB
#P OB98/GEN NMR

erre ene a

0 1
  C     -108.579    -529.500     183.894
  O     -109.192    -528.523     183.035
  P     -108.863    -528.538     181.464
  C     -106.936    -526.778     181.616
  O     -107.337    -528.094     181.248
  C     -105.405    -526.704     181.719
  O     -104.810    -526.948     180.414
  C     -104.866    -525.346     182.141
  O     -104.993    -525.134     183.540
  C     -103.411    -525.438     181.694
  O     -102.614    -526.142     182.660
  C     -103.540    -526.258     180.386
  N     -103.399    -525.435     179.183
  C     -102.681    -526.000     178.133
  O     -102.126    -527.099     178.200
  N     -102.584    -525.232     176.998
  C     -103.069    -523.960     176.849
  O     -102.937    -523.317     175.808
  C     -103.739    -523.396     178.020
  C     -103.873    -524.141     179.123
  O     -109.663    -527.253     180.939
  O     -109.290    -529.766     180.718
  H     -101.819    -526.457     182.183
  H     -109.911    -527.385     180.014
  H     -102.087    -525.628     176.212
  H     -104.114    -522.380     177.946
  H     -104.365    -523.727     179.999
  H     -102.777    -527.048     180.361
  H     -102.957    -524.457     181.548
  H     -105.366    -524.546     181.565
  H     -105.057    -527.491     182.396
  H     -107.361    -526.523     182.596
  H     -107.311    -526.060     180.870
  P     -106.233    -524.198     184.006
  C     -104.579    -522.178     184.034
  O     -105.804    -522.717     183.587
  O     -106.051    -524.255     185.603
  O     -107.552    -524.668     183.499
  H     -105.131    -524.316     185.864
  H     -103.804    -522.946     184.121
  H     -104.730    -521.690     185.013
  H     -104.241    -521.416     183.310
  H     -108.907    -529.345     184.901
  H     -107.515    -529.400     183.846
  H     -108.860    -530.482     183.575

 3  4  5  6  7  8  9  10  11  12  13  23  28  29  30  31  32 0
 6-311+G(2d,p)
 ****
 33  34 0
 6-311+G(2d,p)
 ****
 1  2  14  15  16  17  18  19  20  21  22  24  25  26 0
 3-21G
 ****
 27  35  36  37  38  39  40  41  42  43  44  45 0
 3-21G
 ****


