%nproc=1
%NoSave
%Mem=1900MB
#P OB98/GEN NMR

erre ene a

0 1
  C     -187.226     327.728     -82.805
  O     -186.933     326.838     -81.740
  P     -186.030     327.292     -80.492
  C     -188.259     327.878     -79.321
  O     -186.948     328.298     -79.647
  C     -189.022     329.001     -78.618
  O     -190.419     328.625     -78.517
  C     -188.521     329.314     -77.201
  O     -188.667     330.725     -77.000
  C     -189.488     328.547     -76.323
  O     -189.547     329.052     -74.998
  C     -190.787     328.701     -77.123
  N     -191.776     327.682     -76.785
  C     -193.042     328.114     -76.386
  O     -193.302     329.314     -76.297
  N     -193.994     327.170     -76.091
  C     -193.686     325.913     -76.108
  N     -194.679     325.015     -75.866
  C     -192.331     325.419     -76.420
  C     -191.444     326.345     -76.769
  O     -184.686     327.826     -80.854
  O     -185.989     326.006     -79.546
  H     -189.760     330.002     -75.041
  H     -185.280     325.364     -79.797
  H     -192.115     324.359     -76.397
  H     -190.434     326.076     -77.038
  H     -191.213     329.698     -76.967
  H     -189.180     327.497     -76.269
  H     -187.473     329.036     -77.050
  H     -188.971     329.899     -79.247
  H     -195.624     325.383     -75.830
  H     -188.190     327.022     -78.641
  H     -194.603     324.054     -76.178
  H     -188.783     327.556     -80.229
  P     -187.538     331.494     -76.154
  C     -186.516     332.565     -78.284
  O     -186.300     331.786     -77.127
  O     -186.964     330.311     -75.231
  O     -188.007     332.624     -75.299
  H     -186.586     330.698     -74.420
  H     -185.568     332.666     -78.819
  H     -186.871     333.564     -78.015
  H     -187.239     332.079     -78.945
  H     -187.837     327.230     -83.528
  H     -186.314     328.045     -83.266
  H     -187.748     328.581     -82.424

 3  4  5  6  7  8  9  10  11  12  13  23  27  28  29  30  32 0
 6-311+G(2d,p)
 ****
 34  35 0
 6-311+G(2d,p)
 ****
 1  2  14  15  16  17  18  19  20  21  22  24  25  26 0
 3-21G
 ****
 31  33  36  37  38  39  40  41  42  43  44  45  46 0
 3-21G
 ****


