%nproc=1
%NoSave
%Mem=1900MB
#P OB98/GEN NMR

erre ene a

0 1
  C     -779.032     -63.359    -596.008
  O     -780.090     -62.427    -595.749
  P     -781.655     -62.798    -595.885
  C     -782.332     -62.561    -593.397
  O     -782.462     -62.034    -594.714
  C     -783.156     -61.726    -592.396
  O     -782.475     -60.468    -592.137
  C     -784.530     -61.291    -592.877
  O     -785.463     -62.376    -592.878
  C     -784.859     -60.175    -591.891
  O     -785.418     -60.705    -590.669
  C     -783.464     -59.564    -591.623
  N     -783.319     -58.225    -592.197
  C     -783.854     -57.174    -591.469
  O     -784.489     -57.374    -590.435
  N     -783.661     -55.883    -591.954
  C     -783.084     -55.715    -593.110
  N     -782.923     -54.416    -593.509
  C     -782.635     -56.829    -593.967
  C     -782.784     -58.045    -593.465
  O     -781.921     -64.279    -595.932
  O     -782.140     -62.093    -597.234
  H     -782.904     -62.569    -597.603
  H     -786.245     -61.164    -590.900
  H     -782.215     -56.623    -594.946
  H     -782.471     -58.909    -594.022
  H     -783.294     -59.506    -590.522
  H     -785.589     -59.480    -592.294
  H     -784.455     -60.883    -593.904
  H     -783.230     -62.289    -591.450
  H     -783.244     -53.681    -592.886
  H     -781.278     -62.546    -593.098
  H     -782.470     -54.162    -594.391
  H     -782.664     -63.615    -593.392
  P     -786.782     -62.181    -593.773
  C     -786.261     -64.298    -595.223
  O     -787.188     -63.623    -594.357
  O     -786.273     -61.387    -595.063
  O     -787.910     -61.467    -593.072
  H     -786.951     -60.721    -595.297
  H     -786.422     -65.365    -595.145
  H     -785.234     -64.045    -594.966
  H     -786.467     -63.987    -596.256
  H     -778.088     -62.880    -595.850
  H     -779.095     -63.698    -597.021
  H     -779.123     -64.195    -595.346

 3  4  5  6  7  8  9  10  11  12  13  24  27  28  29  30  32 0
 6-311+G(2d,p)
 ****
 34  35 0
 6-311+G(2d,p)
 ****
 1  2  14  15  16  17  18  19  20  21  22  23  25  26 0
 3-21G
 ****
 31  33  36  37  38  39  40  41  42  43  44  45  46 0
 3-21G
 ****


