%nproc=1
%NoSave
%Mem=1900MB
#P OB98/GEN NMR

erre ene a

0 1
  C      105.799    -504.804    1355.156
  O      106.905    -503.986    1354.854
  H      106.164    -505.820    1355.355
  H      105.104    -504.846    1354.317
  H      105.285    -504.432    1356.051
  P      106.634    -502.470    1354.400
  C      107.296    -501.623    1356.758
  O      106.309    -501.634    1355.742
  C      106.875    -500.729    1357.919
  O      105.601    -501.209    1358.455
  C      107.880    -500.718    1359.101
  O      107.781    -499.432    1359.730
  C      107.290    -501.808    1359.992
  O      107.850    -501.755    1361.284
  C      105.799    -501.512    1359.850
  N      104.977    -502.624    1360.290
  C      104.796    -502.744    1361.669
  O      105.323    -501.950    1362.449
  N      104.028    -503.777    1362.157
  C      103.551    -504.651    1361.326
  N      102.807    -505.668    1361.869
  C      103.763    -504.609    1359.869
  C      104.475    -503.566    1359.416
  O      105.633    -502.291    1353.294
  O      108.069    -501.919    1353.973
  H      107.722    -500.861    1361.683
  H      108.135    -501.869    1353.003
  H      103.352    -505.366    1359.230
  H      104.687    -503.441    1358.364
  H      105.520    -500.609    1360.420
  H      107.526    -502.784    1359.585
  H      108.903    -500.908    1358.783
  H      106.699    -499.699    1357.550
  H      102.704    -505.685    1362.861
  H      108.228    -501.233    1356.312
  H      102.405    -506.419    1361.326
  H      107.487    -502.648    1357.128
  P      108.485    -498.113    1359.146
  C      106.321    -496.904    1358.412
  O      107.564    -497.481    1357.986
  O      109.913    -498.320    1358.723
  O      108.393    -497.030    1360.315
  H      109.166    -496.429    1360.266
  H      105.797    -496.518    1357.562
  H      106.515    -496.110    1359.103
  H      105.725    -497.654    1358.889

 6  7  8  9  10  11  12  13  14  15  16  26  30  31  32  33  35 0
 6-311+G(2d,p)
 ****
 37  38 0
 6-311+G(2d,p)
 ****
 1  2  3  4  5  17  18  19  20  21  22  23  24  25 0
 3-21G
 ****
 27  28  29  34  36  39  40  41  42  43  44  45  46 0
 3-21G
 ****


