%nproc=1
%NoSave
%Mem=1900MB
#P OB98/GEN NMR

erre ene a

0 1
  C     -459.365     293.741     360.464
  O     -458.334     292.797     360.161
  P     -457.924     292.624     358.619
  C     -455.376     292.016     358.701
  O     -456.721     291.565     358.611
  C     -454.478     291.170     357.803
  O     -454.406     289.808     358.291
  C     -454.966     291.059     356.363
  O     -454.730     292.259     355.644
  C     -454.167     289.854     355.883
  O     -452.830     290.248     355.531
  C     -454.138     288.966     357.145
  N     -455.069     287.845     357.076
  C     -454.495     286.593     356.870
  O     -453.286     286.422     356.723
  N     -455.369     285.540     356.813
  C     -456.726     285.619     356.912
  O     -457.458     284.638     356.864
  C     -457.278     286.973     357.081
  C     -456.439     288.009     357.155
  O     -457.222     294.028     358.327
  O     -459.084     292.300     357.740
  H     -456.730     294.375     359.093
  H     -452.897     290.711     354.672
  H     -454.973     284.620     356.674
  H     -458.355     287.076     357.138
  H     -456.825     289.016     357.276
  H     -453.131     288.559     357.296
  H     -454.611     289.379     355.001
  H     -456.037     290.822     356.350
  H     -453.471     291.597     357.829
  H     -455.028     291.935     359.736
  H     -455.335     293.073     358.420
  P     -455.956     292.836     354.781
  C     -455.891     295.449     354.818
  O     -455.475     294.249     354.201
  O     -456.995     293.221     355.934
  O     -456.487     291.872     353.769
  H     -456.581     293.675     356.685
  H     -455.210     296.253     354.522
  H     -455.882     295.365     355.908
  H     -456.901     295.705     354.481
  H     -459.537     293.755     361.520
  H     -460.266     293.459     359.960
  H     -459.064     294.715     360.139

 3  4  5  6  7  8  9  10  11  12  13  24  28  29  30  31  32 0
 6-311+G(2d,p)
 ****
 33  34 0
 6-311+G(2d,p)
 ****
 1  2  14  15  16  17  18  19  20  21  22  23  25  26  27 0
 3-21G
 ****
 35  36  37  38  39  40  41  42  43  44  45 0
 3-21G
 ****


