%nproc=1
%NoSave
%Mem=1900MB
#P OB98/GEN NMR

erre ene a

0 1
  C      713.623     348.291     783.193
  O      713.193     346.924     783.311
  P      712.916     346.212     784.735
  C      715.299     345.230     784.604
  O      713.928     344.985     784.903
  C      716.150     343.962     784.749
  O      716.192     343.542     786.136
  C      715.646     342.762     783.982
  O      715.927     342.882     782.589
  C      716.368     341.626     784.695
  O      717.710     341.478     784.188
  C      716.380     342.117     786.153
  N      715.366     341.459     786.962
  C      715.590     341.454     788.344
  O      716.622     341.928     788.815
  N      714.628     340.876     789.163
  C      713.590     340.300     788.633
  N      712.693     339.768     789.483
  C      713.375     340.213     787.177
  C      714.281     340.813     786.417
  O      711.472     345.866     784.959
  O      713.414     347.269     785.829
  H      717.633     341.284     783.231
  H      712.867     347.170     786.629
  H      712.503     339.694     786.772
  H      714.195     340.796     785.326
  H      717.364     341.933     786.605
  H      715.881     340.652     784.560
  H      714.563     342.649     784.126
  H      717.177     344.221     784.444
  H      712.859     339.844     790.479
  H      715.672     346.005     785.293
  H      711.844     339.296     789.176
  H      715.362     345.616     783.587
  P      714.824     343.490     781.610
  C      714.610     341.227     780.396
  O      714.844     342.623     780.253
  O      714.864     344.965     781.405
  O      713.432     343.039     782.277
  H      712.748     343.718     782.081
  H      714.283     340.841     779.417
  H      713.868     341.021     781.151
  H      715.565     340.737     780.668
  H      713.741     348.540     782.159
  H      714.558     348.416     783.699
  H      712.891     348.935     783.634

 3  4  5  6  7  8  9  10  11  12  13  23  27  28  29  30  32 0
 6-311+G(2d,p)
 ****
 34  35 0
 6-311+G(2d,p)
 ****
 1  2  14  15  16  17  18  19  20  21  22  24  25  26 0
 3-21G
 ****
 31  33  36  37  38  39  40  41  42  43  44  45  46 0
 3-21G
 ****


