%nproc=1
%NoSave
%Mem=1900MB
#P OB98/GEN NMR

erre ene a

0 1
  C      412.929    -317.771    -523.549
  O      413.306    -319.114    -523.869
  P      412.167    -320.181    -524.233
  C      411.678    -321.424    -522.026
  O      411.243    -320.426    -522.940
  C      411.340    -321.027    -520.575
  O      409.893    -321.000    -520.404
  C      411.919    -322.003    -519.539
  O      412.646    -321.335    -518.499
  C      410.708    -322.803    -519.092
  O      410.879    -323.378    -517.804
  C      409.549    -321.812    -519.261
  N      408.265    -322.488    -519.418
  C      407.629    -322.885    -518.253
  O      408.125    -322.774    -517.137
  N      406.416    -323.501    -518.417
  C      405.827    -323.811    -519.610
  O      404.755    -324.399    -519.703
  C      406.576    -323.422    -520.813
  C      407.744    -322.784    -520.667
  O      412.639    -321.421    -524.909
  O      411.191    -319.346    -525.200
  H      411.172    -322.657    -517.175
  H      410.878    -319.949    -525.909
  H      405.929    -323.780    -517.572
  H      406.163    -323.666    -521.772
  H      408.331    -322.500    -521.526
  H      409.476    -321.154    -518.390
  H      410.564    -323.633    -519.790
  H      412.654    -322.679    -519.987
  H      411.718    -320.015    -520.425
  H      412.758    -321.562    -522.115
  H      411.218    -322.387    -522.294
  P      414.245    -321.229    -518.447
  C      414.516    -323.785    -518.135
  O      414.868    -322.634    -518.888
  O      414.817    -320.653    -517.198
  O      414.574    -320.265    -519.695
  H      415.293    -319.650    -519.446
  H      415.285    -324.551    -518.320
  H      413.549    -324.161    -518.486
  H      414.474    -323.575    -517.064
  H      413.805    -317.196    -523.333
  H      412.286    -317.775    -522.694
  H      412.414    -317.337    -524.381

 3  4  5  6  7  8  9  10  11  12  13  23  28  29  30  31  32 0
 6-311+G(2d,p)
 ****
 33  34 0
 6-311+G(2d,p)
 ****
 1  2  14  15  16  17  18  19  20  21  22  24  25  26  27 0
 3-21G
 ****
 35  36  37  38  39  40  41  42  43  44  45 0
 3-21G
 ****


