%nproc=1
%NoSave
%Mem=1900MB
#P OB98/GEN NMR

erre ene a

0 1
  C     -488.903     211.992    -615.810
  O     -489.992     211.903    -616.704
  H     -488.605     213.040    -615.722
  H     -488.052     211.420    -616.195
  H     -489.181     211.623    -614.820
  P     -490.730     210.491    -616.885
  C     -492.973     211.221    -615.844
  O     -491.828     210.381    -615.720
  C     -493.023     212.197    -614.673
  O     -491.817     212.999    -614.642
  C     -494.171     213.199    -614.754
  O     -495.413     212.595    -614.422
  C     -493.692     214.268    -613.788
  O     -493.980     213.911    -612.434
  C     -492.168     214.266    -614.040
  N     -491.751     215.385    -614.889
  C     -491.346     216.541    -614.228
  O     -491.321     216.647    -613.000
  N     -491.036     217.607    -615.030
  C     -491.212     217.670    -616.379
  O     -491.154     218.712    -617.022
  C     -491.579     216.405    -617.027
  C     -491.840     215.340    -616.265
  O     -489.831     209.308    -617.026
  O     -491.626     210.706    -618.202
  H     -491.186     210.277    -618.958
  H     -493.461     213.089    -612.260
  H     -490.781     218.462    -614.551
  H     -491.658     216.387    -618.110
  H     -492.143     214.394    -616.724
  H     -491.621     214.328    -613.089
  H     -494.168     215.231    -613.990
  H     -494.224     213.622    -615.764
  H     -493.074     211.620    -613.742
  H     -493.869     210.590    -615.830
  H     -492.922     211.760    -616.794
  P     -496.130     211.611    -615.453
  C     -496.247     209.570    -613.899
  O     -495.707     210.105    -615.104
  O     -495.985     211.986    -616.897
  O     -497.672     211.651    -615.011
  H     -498.225     211.824    -615.805
  H     -495.900     208.566    -613.768
  H     -497.316     209.574    -613.954
  H     -495.931     210.168    -613.070

 6  7  8  9  10  11  12  13  14  15  16  27  31  32  33  34  35 0
 6-311+G(2d,p)
 ****
 36  37 0
 6-311+G(2d,p)
 ****
 1  2  3  4  5  17  18  19  20  21  22  23  24  25 0
 3-21G
 ****
 26  28  29  30  38  39  40  41  42  43  44  45 0
 3-21G
 ****


