%nproc=1
%NoSave
%Mem=1900MB
#P OB98/GEN NMR

erre ene a

0 1
  C      170.199      -3.686     -85.628
  O      168.900      -3.119     -85.721
  H      170.611      -3.461     -84.641
  H      170.855      -3.263     -86.392
  H      170.142      -4.774     -85.746
  P      168.139      -3.321     -87.117
  C      166.118      -4.547     -86.039
  O      167.217      -4.624     -86.937
  C      164.800      -4.542     -86.807
  O      164.675      -5.736     -87.618
  C      163.559      -4.494     -85.921
  O      163.264      -3.159     -85.530
  C      162.505      -5.070     -86.860
  O      162.016      -4.079     -87.792
  C      163.283      -6.160     -87.587
  N      162.077     -10.996     -88.414
  C      162.121      -9.925     -89.279
  N      161.734     -10.178     -90.560
  N      162.503      -8.728     -88.943
  C      162.825      -8.629     -87.628
  C      162.847      -9.608     -86.666
  C      162.443     -10.943     -87.080
  O      162.447     -11.954     -86.359
  N      163.259      -9.124     -85.455
  C      163.459      -7.841     -85.675
  N      163.191      -7.485     -86.966
  O      169.288      -3.822     -88.116
  O      167.442      -2.108     -87.651
  H      161.272      -4.457     -88.301
  H      169.084      -3.518     -89.020
  H      161.792     -11.908     -88.740
  H      163.777      -7.123     -84.930
  H      162.962      -6.282     -88.633
  H      161.636      -5.431     -86.310
  H      161.134     -10.957     -90.784
  H      163.670      -5.146     -85.048
  H      161.743      -9.390     -91.192
  H      164.818      -3.683     -87.491
  H      166.192      -3.616     -85.457
  H      166.152      -5.395     -85.350
  P      163.074      -2.870     -83.960
  C      165.354      -1.617     -83.753
  O      164.545      -2.723     -83.335
  O      162.577      -4.278     -83.373
  O      162.124      -1.766     -83.634
  H      162.168      -4.159     -82.500
  H      166.299      -1.657     -83.252
  H      164.859      -0.700     -83.509
  H      165.509      -1.668     -84.811

 6  7  8  9  10  11  12  13  14  15  26  29  33  34 0
 6-311+G(2d,p)
 ****
 36  38  39  40  41 0
 6-311+G(2d,p)
 ****
 1  2  3  4  5  16  17  18  19  20  21  22  23  24  25 0
 3-21G
 ****
 27  28  30  31  32  35  37  42  43  44  45  46  47 0
 3-21G
 ****
 48  49 0
 3-21G
 ****


