%nproc=1
%NoSave
%Mem=1900MB
#P OB98/GEN NMR

erre ene a

0 1
  C      251.502     453.529    -631.405
  O      252.229     452.712    -630.505
  H      251.327     452.962    -632.321
  H      252.070     454.430    -631.650
  H      250.534     453.803    -630.972
  P      252.652     453.330    -629.090
  C      254.848     451.968    -629.094
  O      253.633     452.256    -628.410
  C      255.571     450.798    -628.419
  O      256.051     451.187    -627.121
  C      254.691     449.562    -628.202
  O      254.606     448.798    -629.389
  C      255.479     448.858    -627.109
  O      256.633     448.205    -627.681
  C      255.934     450.046    -626.235
  N      255.568     451.905    -621.520
  C      256.687     451.588    -622.261
  N      257.879     451.756    -621.653
  N      256.644     451.126    -623.485
  C      255.390     450.942    -623.941
  C      254.197     451.206    -623.302
  C      254.265     451.774    -621.969
  O      253.296     452.098    -621.293
  N      253.120     450.803    -624.045
  C      253.650     450.345    -625.159
  N      255.030     450.396    -625.146
  O      251.529     453.770    -628.199
  O      253.636     454.536    -629.460
  H      257.197     448.902    -628.062
  H      253.148     455.375    -629.544
  H      255.664     452.249    -620.582
  H      253.094     449.964    -626.013
  H      256.919     449.869    -625.785
  H      254.895     448.094    -626.596
  H      257.974     451.957    -620.668
  H      253.707     449.833    -627.810
  H      258.713     451.472    -622.157
  H      256.451     450.548    -629.034
  H      255.471     452.870    -629.057
  H      254.647     451.719    -630.138
  P      253.402     449.004    -630.439
  C      252.439     446.865    -629.344
  O      252.689     447.569    -630.551
  O      253.804     449.602    -631.742
  O      252.324     449.856    -629.626
  H      252.485     450.830    -629.665
  H      251.964     445.933    -629.567
  H      251.800     447.450    -628.716
  H      253.365     446.682    -628.840

 6  7  8  9  10  11  12  13  14  15  26  29  33  34 0
 6-311+G(2d,p)
 ****
 36  38  39  40  41 0
 6-311+G(2d,p)
 ****
 1  2  3  4  5  16  17  18  19  20  21  22  23  24  25 0
 3-21G
 ****
 27  28  30  31  32  35  37  42  43  44  45  46  47 0
 3-21G
 ****
 48  49 0
 3-21G
 ****


