%nproc=1
%NoSave
%Mem=1900MB
#P OB98/GEN NMR

erre ene a

0 1
  C     1289.940     650.500     552.325
  O     1291.328     650.357     552.075
  P     1291.899     649.162     551.196
  C     1293.310     650.537     549.449
  O     1292.195     649.714     549.728
  C     1294.495     649.644     549.016
  O     1294.107     648.798     547.915
  C     1295.702     650.483     548.590
  O     1296.604     650.654     549.674
  C     1296.286     649.646     547.447
  O     1297.091     648.580     547.961
  C     1294.996     649.085     546.787
  N     1294.244     649.942     545.826
  C     1294.621     649.946     544.492
  O     1295.516     649.252     544.033
  N     1293.920     650.821     543.695
  C     1292.882     651.616     544.094
  O     1292.450     652.546     543.422
  C     1292.367     651.368     545.442
  C     1293.089     650.580     546.241
  O     1290.609     648.234     550.971
  O     1293.044     648.406     551.775
  H     1297.807     648.977     548.456
  H     1290.622     647.491     551.602
  H     1294.276     650.917     542.736
  H     1291.470     651.881     545.753
  H     1292.749     650.408     547.256
  H     1295.205     648.124     546.281
  H     1296.933     650.268     546.811
  H     1295.371     651.451     548.174
  H     1294.773     649.004     549.850
  H     1293.581     651.106     550.346
  H     1293.073     651.254     548.653
  P     1296.785     652.117     550.307
  C     1296.257     651.210     552.663
  O     1295.852     652.120     551.631
  O     1296.575     653.251     549.376
  O     1298.289     652.069     550.876
  H     1298.886     652.490     550.231
  H     1295.662     651.455     553.555
  H     1297.306     651.322     552.875
  H     1296.018     650.190     552.325
  H     1289.774     651.364     552.934
  H     1289.578     649.631     552.833
  H     1289.420     650.613     551.397

 3  4  5  6  7  8  9  10  11  12  13  23  28  29  30  31  32 0
 6-311+G(2d,p)
 ****
 33  34 0
 6-311+G(2d,p)
 ****
 1  2  14  15  16  17  18  19  20  21  22  24  25  26  27 0
 3-21G
 ****
 35  36  37  38  39  40  41  42  43  44  45 0
 3-21G
 ****


