%nproc=1
%NoSave
%Mem=1900MB
#P OB98/GEN NMR

erre ene a

0 1
  C      506.588     -41.022     135.406
  O      506.158     -41.302     136.745
  P      506.051     -40.080     137.775
  C      503.581     -39.468     137.237
  O      504.515     -39.924     138.203
  C      502.513     -38.593     137.899
  O      501.732     -37.869     136.922
  C      501.509     -39.375     138.737
  O      502.009     -39.652     140.036
  C      500.359     -38.381     138.822
  O      500.645     -37.396     139.838
  C      500.383     -37.739     137.432
  N      497.408     -36.956     133.414
  C      498.236     -36.082     134.091
  N      498.285     -34.813     133.625
  N      498.952     -36.419     135.134
  C      498.817     -37.722     135.471
  C      498.031     -38.685     134.881
  C      497.231     -38.293     133.741
  O      496.469     -39.021     133.110
  N      498.154     -39.892     135.517
  C      499.032     -39.671     136.479
  N      499.451     -38.362     136.506
  O      506.285     -38.801     136.834
  O      507.038     -40.129     138.893
  H      501.581     -37.139     139.722
  H      506.670     -38.074     137.358
  H      496.874     -36.639     132.619
  H      499.389     -40.417     137.174
  H      500.141     -36.670     137.460
  H      499.418     -38.859     139.098
  H      497.800     -34.498     132.803
  H      501.183     -40.285     138.213
  H      498.910     -34.168     134.094
  H      503.024     -37.862     138.546
  H      503.105     -40.318     136.740
  H      504.117     -38.925     136.454
  P      502.110     -41.190     140.488
  C      504.674     -41.581     140.342
  O      503.548     -41.357     141.170
  O      502.246     -41.962     139.090
  O      500.951     -41.684     141.280
  H      501.838     -42.844     139.156
  H      505.577     -41.509     140.953
  H      504.723     -40.833     139.547
  H      504.625     -42.583     139.903
  H      506.610     -41.930     134.841
  H      507.568     -40.593     135.428
  H      505.907     -40.334     134.949

 3  4  5  6  7  8  9  10  11  12  23  26  30  31 0
 6-311+G(2d,p)
 ****
 33  35  36  37  38 0
 6-311+G(2d,p)
 ****
 1  2  13  14  15  16  17  18  19  20  21  22  24  25 0
 3-21G
 ****
 27  28  29  32  34  39  40  41  42  43  44  45  46  47  48  49 0
 3-21G
 ****


