%nproc=1
%NoSave
%Mem=1900MB
#P OB98/GEN NMR

erre ene a

0 1
  C     -894.922    -793.022     480.005
  O     -896.172    -793.466     480.497
  H     -894.142    -793.754     480.258
  H     -894.982    -792.954     478.917
  H     -894.672    -792.047     480.401
  P     -896.362    -793.474     482.091
  C     -897.722    -791.261     482.085
  O     -896.542    -791.938     482.521
  C     -897.572    -789.753     482.325
  O     -897.132    -789.536     483.677
  C     -896.582    -789.091     481.375
  O     -897.092    -787.788     480.997
  C     -895.332    -788.922     482.231
  O     -894.512    -787.861     481.785
  C     -895.952    -788.703     483.599
  N     -892.612    -786.775     486.953
  C     -893.472    -786.185     486.091
  N     -894.322    -786.775     485.241
  C     -894.282    -788.094     485.360
  C     -893.482    -788.854     486.210
  C     -892.592    -788.116     487.020
  N     -891.702    -788.722     487.877
  N     -893.702    -790.207     486.017
  C     -894.642    -790.274     485.098
  N     -895.022    -789.026     484.672
  O     -894.882    -793.834     482.607
  O     -897.372    -794.430     482.629
  H     -894.132    -788.076     480.919
  H     -894.722    -794.788     482.531
  H     -893.432    -785.095     486.082
  H     -895.072    -791.191     484.710
  H     -896.262    -787.650     483.768
  H     -894.742    -789.831     482.209
  H     -896.382    -789.684     480.471
  H     -898.572    -789.294     482.228
  H     -898.582    -791.631     482.650
  H     -891.062    -788.132     488.380
  H     -891.622    -789.718     487.895
  H     -897.892    -791.466     481.027
  P     -898.482    -787.790     480.222
  C     -899.232    -785.466     481.102
  O     -899.532    -786.865     481.024
  O     -899.062    -789.268     480.418
  O     -898.352    -787.453     478.753
  H     -899.332    -789.639     479.585
  H     -900.000    -784.967     481.656
  H     -899.181    -785.057     480.115
  H     -898.292    -785.330     481.594

 6  7  8  9  10  11  12  13  14  15  25  28  32  33  34  35 0
 6-311+G(2d,p)
 ****
 36  39  40 0
 6-311+G(2d,p)
 ****
 1  2  3  4  5  16  17  18  19  20  21  22  23  24 0
 3-21G
 ****
 26  27  29  30  31  37  38  41  42  43  44  45  46  47 0
 3-21G
 ****
 48 0
 3-21G
 ****


