%nproc=1
%NoSave
%Mem=1900MB
#P OB98/GEN NMR

erre ene a

0 1
  C     -814.340    1138.881     -38.638
  O     -814.925    1139.876     -37.810
  H     -814.770    1137.920     -38.374
  H     -813.262    1138.841     -38.470
  H     -814.557    1139.096     -39.682
  P     -814.391    1141.382     -38.013
  C     -812.647    1141.663     -36.109
  O     -812.873    1141.334     -37.472
  C     -811.578    1142.751     -35.985
  O     -810.313    1142.255     -36.463
  C     -811.861    1143.999     -36.781
  O     -812.742    1144.867     -36.055
  C     -810.474    1144.606     -36.898
  O     -810.138    1145.308     -35.687
  C     -809.587    1143.357     -37.048
  N     -807.288    1144.940     -41.367
  C     -807.626    1145.603     -40.230
  N     -808.276    1145.136     -39.162
  C     -808.590    1143.818     -39.294
  C     -808.313    1143.024     -40.403
  C     -807.632    1143.623     -41.478
  N     -807.292    1142.950     -42.618
  N     -808.796    1141.744     -40.204
  C     -809.285    1141.761     -38.992
  N     -809.227    1142.996     -38.415
  O     -815.260    1142.451     -37.455
  O     -814.186    1141.424     -39.596
  H     -810.308    1144.696     -34.948
  H     -813.810    1140.586     -39.919
  H     -807.328    1146.642     -40.194
  H     -809.688    1140.895     -38.474
  H     -808.643    1143.459     -36.495
  H     -810.396    1145.332     -37.717
  H     -812.257    1143.790     -37.775
  H     -811.457    1142.981     -34.925
  H     -812.335    1140.766     -35.552
  H     -806.966    1143.502     -43.397
  H     -807.654    1142.021     -42.746
  H     -813.589    1142.017     -35.698
  P     -813.598    1146.002     -36.793
  C     -811.609    1147.530     -36.276
  O     -812.523    1147.090     -37.275
  O     -814.753    1146.522     -35.996
  O     -814.042    1145.313     -38.167
  H     -814.803    1145.816     -38.568
  H     -810.939    1148.250     -36.698
  H     -811.050    1146.694     -35.911
  H     -812.151    1147.977     -35.469

 6  7  8  9  10  11  12  13  14  15  25  28  32  33  34  35 0
 6-311+G(2d,p)
 ****
 36  39  40 0
 6-311+G(2d,p)
 ****
 1  2  3  4  5  16  17  18  19  20  21  22  23  24 0
 3-21G
 ****
 26  27  29  30  31  37  38  41  42  43  44  45  46  47 0
 3-21G
 ****
 48 0
 3-21G
 ****


