%nproc=1
%NoSave
%Mem=1900MB
#P OB98/GEN NMR

erre ene a

0 1
  C     -717.706    -108.819    1013.617
  O     -717.831    -107.857    1012.591
  H     -717.034    -108.434    1014.382
  H     -717.290    -109.749    1013.216
  H     -718.691    -109.013    1014.066
  P     -718.701    -108.265    1011.310
  C     -720.683    -106.958    1012.373
  O     -719.909    -107.211    1011.202
  C     -720.723    -105.449    1012.625
  O     -719.375    -104.950    1012.824
  C     -721.299    -104.631    1011.485
  O     -722.718    -104.665    1011.434
  C     -720.761    -103.252    1011.802
  O     -721.602    -102.566    1012.744
  C     -719.376    -103.569    1012.410
  N     -718.297    -103.270    1011.472
  C     -717.832    -101.959    1011.485
  O     -718.275    -101.087    1012.229
  N     -716.840    -101.679    1010.575
  C     -716.332    -102.541    1009.647
  O     -715.490    -102.192    1008.819
  C     -716.881    -103.903    1009.662
  C     -717.823    -104.202    1010.563
  O     -719.419    -109.619    1011.770
  O     -717.921    -108.451    1010.047
  H     -719.000    -110.381    1011.322
  H     -722.318    -102.172    1012.218
  H     -716.483    -100.731    1010.575
  H     -716.504    -104.604    1008.940
  H     -718.260    -105.197    1010.595
  H     -719.213    -102.961    1013.312
  H     -720.705    -102.640    1010.909
  H     -720.867    -104.973    1010.529
  H     -721.291    -105.272    1013.550
  H     -720.217    -107.450    1013.232
  H     -721.692    -107.363    1012.228
  P     -723.411    -104.889    1010.007
  C     -723.777    -107.460    1009.563
  O     -724.268    -106.248    1010.131
  O     -722.145    -105.281    1009.108
  O     -724.183    -103.698    1009.540
  H     -721.439    -105.688    1009.640
  H     -724.477    -108.248    1009.745
  H     -722.837    -107.708    1010.010
  H     -723.648    -107.333    1008.508

 6  7  8  9  10  11  12  13  14  15  16  27  31  32  33  34  35 0
 6-311+G(2d,p)
 ****
 36  37 0
 6-311+G(2d,p)
 ****
 1  2  3  4  5  17  18  19  20  21  22  23  24  25 0
 3-21G
 ****
 26  28  29  30  38  39  40  41  42  43  44  45 0
 3-21G
 ****


