%nproc=1
%NoSave
%Mem=1900MB
#P OB98/GEN NMR

erre ene a

0 1
  C       28.071     218.646    -201.236
  O       29.065     217.708    -200.872
  H       27.737     218.426    -202.254
  H       28.486     219.660    -201.210
  H       27.211     218.574    -200.561
  P       29.562     217.735    -199.346
  C       30.984     219.486    -197.998
  O       30.604     218.955    -199.255
  C       32.329     220.208    -198.098
  O       33.385     219.212    -198.165
  C       32.458     221.102    -199.333
  O       33.234     222.256    -198.978
  C       33.244     220.250    -200.316
  O       33.918     221.031    -201.295
  C       34.163     219.472    -199.355
  N       34.667     218.231    -199.952
  C       35.627     218.360    -200.956
  O       36.012     219.485    -201.307
  N       36.122     217.232    -201.559
  C       35.639     216.073    -201.238
  N       36.138     214.991    -201.895
  C       34.582     215.891    -200.220
  C       34.158     216.997    -199.608
  O       30.495     216.437    -199.280
  O       28.463     217.761    -198.340
  H       34.541     221.639    -200.841
  H       31.088     216.343    -200.047
  H       34.203     214.899    -199.987
  H       33.392     216.956    -198.846
  H       35.025     220.086    -199.063
  H       32.571     219.559    -200.840
  H       31.485     221.418    -199.734
  H       32.493     220.781    -197.179
  H       36.847     215.165    -202.605
  H       31.056     218.685    -197.250
  H       35.803     214.046    -201.771
  H       30.202     220.185    -197.675
  P       32.528     223.688    -198.907
  C       31.620     225.494    -200.529
  O       32.358     224.283    -200.383
  O       33.097     224.637    -197.898
  O       31.009     223.310    -198.513
  H       30.703     223.965    -197.851
  H       31.589     225.770    -201.562
  H       32.094     226.271    -199.966
  H       30.623     225.350    -200.168

 6  7  8  9  10  11  12  13  14  15  16  26  30  31  32  33  35 0
 6-311+G(2d,p)
 ****
 37  38 0
 6-311+G(2d,p)
 ****
 1  2  3  4  5  17  18  19  20  21  22  23  24  25 0
 3-21G
 ****
 27  28  29  34  36  39  40  41  42  43  44  45  46 0
 3-21G
 ****


