%nproc=1
%NoSave
%Mem=1900MB
#P OB98/GEN NMR

erre ene a

0 1
  C     -331.649     181.870    -131.831
  O     -330.683     182.390    -130.932
  P     -329.121     182.075    -131.122
  C     -328.261     184.492    -130.954
  O     -328.516     183.387    -131.815
  C     -328.838     185.770    -131.556
  O     -330.280     185.647    -131.594
  C     -328.566     187.056    -130.778
  O     -327.310     187.660    -131.054
  C     -329.680     187.949    -131.309
  O     -329.320     188.457    -132.606
  C     -330.849     186.969    -131.429
  N     -335.136     188.899    -129.414
  C     -334.558     189.055    -130.625
  N     -333.404     188.521    -131.079
  C     -332.857     187.719    -130.151
  C     -333.332     187.458    -128.876
  C     -334.532     188.092    -128.512
  N     -335.133     187.914    -127.284
  N     -332.483     186.598    -128.207
  C     -331.526     186.337    -129.070
  N     -331.710     186.982    -130.261
  O     -328.830     180.785    -131.808
  O     -328.523     182.141    -129.642
  H     -329.112     187.685    -133.166
  H     -327.646     181.709    -129.618
  H     -335.089     189.697    -131.322
  H     -330.681     185.691    -128.877
  H     -331.475     187.165    -132.309
  H     -329.872     188.815    -130.669
  H     -328.706     186.908    -129.700
  H     -328.480     185.856    -132.590
  H     -327.176     184.601    -130.849
  H     -336.053     188.300    -127.159
  H     -334.771     187.190    -126.679
  H     -328.685     184.293    -129.967
  P     -326.125     187.402    -129.999
  C     -324.700     186.762    -132.097
  O     -325.060     186.480    -130.763
  O     -326.574     186.899    -128.672
  O     -325.397     188.826    -129.930
  H     -324.941     189.098    -130.741
  H     -323.855     186.126    -132.375
  H     -324.400     187.805    -132.209
  H     -325.537     186.542    -132.766
  H     -332.624     182.193    -131.533
  H     -331.608     180.801    -131.819
  H     -331.443     182.224    -132.820

 3  4  5  6  7  8  9  10  11  12  22  25  29  30  31  32 0
 6-311+G(2d,p)
 ****
 33  36  37 0
 6-311+G(2d,p)
 ****
 1  2  13  14  15  16  17  18  19  20  21  23  24  26 0
 3-21G
 ****
 27  28  34  35  38  39  40  41  42  43  44  45  46  47  48 0
 3-21G
 ****


