%nproc=1
%NoSave
%Mem=1900MB
#P OB98/GEN NMR

erre ene a

0 1
  C       -0.107    -333.375    -136.906
  O       -0.648    -333.445    -135.578
  P       -0.001    -334.330    -134.406
  C        0.057    -336.794    -133.648
  O       -0.341    -335.878    -134.660
  C       -1.005    -337.873    -133.405
  O       -2.209    -337.276    -132.828
  C       -1.443    -338.636    -134.673
  O       -1.628    -340.000    -134.289
  C       -2.764    -337.957    -135.009
  O       -3.590    -338.719    -135.873
  C       -3.325    -337.772    -133.595
  N       -4.469    -336.869    -133.488
  C       -5.669    -337.267    -134.089
  O       -5.752    -338.313    -134.732
  N       -6.770    -336.452    -133.959
  C       -6.679    -335.340    -133.303
  N       -7.807    -334.582    -133.205
  C       -5.432    -334.873    -132.676
  C       -4.381    -335.677    -132.802
  O       -0.362    -333.860    -133.033
  O        1.582    -334.243    -134.634
  H        2.028    -334.233    -133.762
  H       -3.765    -339.577    -135.439
  H       -5.404    -333.938    -132.129
  H       -3.431    -335.418    -132.344
  H       -3.593    -338.753    -133.174
  H       -2.557    -337.003    -135.498
  H       -0.703    -338.596    -135.480
  H       -0.618    -338.570    -132.660
  H       -8.652    -334.942    -133.645
  H        0.213    -336.237    -132.718
  H       -7.853    -333.703    -132.711
  H        1.009    -337.250    -133.937
  P       -1.549    -341.158    -135.388
  C       -3.357    -342.764    -136.362
  O       -3.045    -341.479    -135.872
  O       -1.212    -342.449    -134.495
  O       -0.514    -340.990    -136.454
  H       -0.754    -343.108    -135.041
  H       -4.307    -343.086    -135.927
  H       -2.589    -343.502    -136.116
  H       -3.467    -342.715    -137.454
  H       -0.710    -332.724    -137.503
  H       -0.100    -334.353    -137.340
  H        0.893    -332.996    -136.864

 3  4  5  6  7  8  9  10  11  12  13  24  27  28  29  30  32 0
 6-311+G(2d,p)
 ****
 34  35 0
 6-311+G(2d,p)
 ****
 1  2  14  15  16  17  18  19  20  21  22  23  25  26 0
 3-21G
 ****
 31  33  36  37  38  39  40  41  42  43  44  45  46 0
 3-21G
 ****


