%nproc=1
%NoSave
%Mem=1900MB
#P OB98/GEN NMR

erre ene a

0 1
  C     -320.292     -66.851      59.933
  O     -321.527     -67.358      59.426
  P     -322.004     -66.848      57.982
  C     -323.209     -64.630      58.697
  O     -322.120     -65.248      58.037
  C     -323.711     -63.403      57.910
  O     -324.892     -62.881      58.582
  C     -322.734     -62.232      57.839
  O     -323.126     -61.371      56.761
  C     -322.986     -61.534      59.161
  O     -322.498     -60.195      59.153
  C     -324.519     -61.691      59.326
  N     -324.946     -61.825      60.738
  C     -325.034     -60.666      61.516
  O     -324.778     -59.538      61.102
  N     -325.405     -60.849      62.824
  C     -325.727     -62.038      63.404
  O     -325.962     -62.156      64.605
  C     -325.751     -63.202      62.510
  C     -325.361     -63.049      61.244
  O     -323.515     -67.350      57.883
  O     -321.163     -67.362      56.855
  H     -322.764     -59.803      58.283
  H     -323.580     -68.118      57.282
  H     -325.407     -60.030      63.414
  H     -326.070     -64.153      62.925
  H     -325.350     -63.901      60.569
  H     -325.052     -60.829      58.905
  H     -322.467     -62.060      59.963
  H     -321.684     -62.520      57.724
  H     -324.009     -63.720      56.904
  H     -322.915     -64.337      59.712
  H     -324.029     -65.350      58.803
  P     -322.211     -61.356      55.441
  C     -320.262     -59.975      56.401
  O     -320.690     -61.250      55.949
  O     -322.611     -60.382      54.384
  O     -322.301     -62.873      54.926
  H     -322.041     -62.919      53.990
  H     -319.480     -60.122      57.159
  H     -321.085     -59.409      56.848
  H     -319.842     -59.416      55.562
  H     -320.102     -67.274      60.897
  H     -320.351     -65.786      60.016
  H     -319.498     -67.113      59.266

 3  4  5  6  7  8  9  10  11  12  13  23  28  29  30  31  32 0
 6-311+G(2d,p)
 ****
 33  34 0
 6-311+G(2d,p)
 ****
 1  2  14  15  16  17  18  19  20  21  22  24  25  26  27 0
 3-21G
 ****
 35  36  37  38  39  40  41  42  43  44  45 0
 3-21G
 ****


