%nproc=1
%NoSave
%Mem=1900MB
#P OB98/GEN NMR

erre ene a

0 1
  C      355.292    -516.755     141.659
  O      355.627    -516.380     140.322
  P      355.470    -514.841     139.891
  C      356.941    -513.332     138.414
  O      356.322    -514.609     138.554
  C      357.707    -513.243     137.092
  O      358.843    -514.127     137.074
  C      356.871    -513.633     135.885
  O      355.943    -512.614     135.554
  C      357.955    -513.893     134.846
  O      358.393    -512.662     134.244
  C      359.093    -514.490     135.700
  N      359.224    -515.935     135.550
  C      359.839    -516.376     134.373
  O      360.200    -515.564     133.524
  N      360.023    -517.722     134.197
  C      359.613    -518.557     135.097
  N      359.819    -519.884     134.866
  C      358.944    -518.138     136.349
  C      358.774    -516.825     136.501
  O      355.697    -513.843     140.978
  O      353.962    -514.779     139.352
  H      358.448    -512.008     134.975
  H      353.607    -513.878     139.516
  H      358.629    -518.866     137.078
  H      358.291    -516.420     137.387
  H      360.054    -514.036     135.426
  H      357.598    -514.539     134.036
  H      356.333    -514.566     136.096
  H      358.064    -512.204     136.978
  H      360.264    -520.149     133.999
  H      357.620    -513.157     139.252
  H      359.582    -520.603     135.530
  H      356.166    -512.556     138.472
  P      354.434    -512.788     136.064
  C      353.090    -511.305     137.717
  O      353.926    -511.362     136.578
  O      354.613    -513.624     137.422
  O      353.521    -513.496     135.111
  H      353.847    -514.223     137.538
  H      353.095    -510.289     138.109
  H      353.446    -511.988     138.502
  H      352.066    -511.575     137.442
  H      355.450    -517.806     141.785
  H      354.264    -516.524     141.847
  H      355.911    -516.216     142.346

 3  4  5  6  7  8  9  10  11  12  13  23  27  28  29  30  32 0
 6-311+G(2d,p)
 ****
 34  35 0
 6-311+G(2d,p)
 ****
 1  2  14  15  16  17  18  19  20  21  22  24  25  26 0
 3-21G
 ****
 31  33  36  37  38  39  40  41  42  43  44  45  46 0
 3-21G
 ****


