%nproc=1
%NoSave
%Mem=1900MB
#P OB98/GEN NMR

erre ene a

0 1
  C      137.156      30.631    -113.888
  O      135.794      31.059    -113.709
  P      135.144      31.011    -112.240
  C      133.028      29.473    -112.349
  O      133.563      30.790    -112.384
  C      131.506      29.520    -112.511
  O      131.143      29.456    -113.911
  C      130.770      28.356    -111.857
  O      130.675      28.514    -110.454
  C      129.421      28.416    -112.567
  O      128.562      29.396    -111.954
  C      129.828      28.861    -113.986
  N      129.792      27.763    -114.950
  C      128.569      27.517    -115.566
  O      127.542      28.133    -115.289
  N      128.557      26.510    -116.489
  C      129.609      25.693    -116.804
  O      129.529      24.790    -117.631
  C      130.853      25.950    -116.064
  C      130.888      26.951    -115.181
  O      135.224      32.549    -111.789
  O      135.842      30.137    -111.250
  H      127.738      29.411    -112.479
  H      135.285      32.604    -110.818
  H      127.688      26.335    -116.969
  H      131.703      25.309    -116.267
  H      131.800      27.152    -114.627
  H      129.160      29.656    -114.340
  H      128.890      27.462    -112.537
  H      131.267      27.411    -112.110
  H      131.147      30.476    -112.111
  H      133.272      29.010    -111.388
  H      133.485      28.883    -113.150
  P      130.912      27.193    -109.565
  C      128.430      26.785    -108.840
  O      129.732      27.198    -108.480
  O      132.226      27.608    -108.749
  O      131.048      25.953    -110.385
  H      132.254      28.559    -108.555
  H      128.454      25.997    -109.598
  H      127.873      27.641    -109.230
  H      127.920      26.405    -107.950
  H      137.428      30.727    -114.919
  H      137.251      29.608    -113.588
  H      137.802      31.239    -113.291

 3  4  5  6  7  8  9  10  11  12  13  23  28  29  30  31  32 0
 6-311+G(2d,p)
 ****
 33  34 0
 6-311+G(2d,p)
 ****
 1  2  14  15  16  17  18  19  20  21  22  24  25  26 0
 3-21G
 ****
 27  35  36  37  38  39  40  41  42  43  44  45 0
 3-21G
 ****


