%nproc=1
%NoSave
%Mem=1900MB
#P OB98/GEN NMR

erre ene a

0 1
  C     -247.139     311.441     995.969
  O     -248.530     311.457     995.692
  H     -246.909     312.269     996.641
  H     -246.564     311.567     995.046
  H     -246.858     310.505     996.456
  P     -249.123     310.378     994.669
  C     -250.638     309.244     996.423
  O     -250.587     309.984     995.217
  C     -251.822     309.713     997.281
  O     -251.591     311.095     997.631
  C     -253.165     309.618     996.533
  O     -254.164     308.900     997.252
  C     -253.467     311.071     996.174
  O     -254.839     311.372     996.005
  C     -252.773     311.856     997.293
  N     -252.422     313.223     996.926
  C     -253.139     314.260     997.527
  O     -254.030     314.109     998.362
  N     -252.780     315.541     997.145
  C     -251.823     315.857     996.230
  O     -251.546     317.015     995.933
  C     -251.120     314.725     995.605
  C     -251.444     313.477     995.976
  O     -248.233     309.213     994.374
  O     -249.446     311.226     993.353
  H     -255.293     311.205     996.856
  H     -248.750     311.074     992.688
  H     -253.286     316.289     997.584
  H     -250.354     314.936     994.879
  H     -250.937     312.623     995.544
  H     -253.413     311.903     998.183
  H     -252.969     311.299     995.212
  H     -253.057     309.037     995.602
  H     -251.839     309.131     998.210
  H     -249.706     309.391     996.956
  H     -250.752     308.169     996.208
  P     -255.467     308.245     996.600
  C     -255.299     305.936     997.835
  O     -256.031     307.141     997.607
  O     -255.340     307.852     995.150
  O     -256.558     309.438     996.688
  H     -257.139     309.334     995.903
  H     -255.829     305.324     998.534
  H     -254.334     306.174     998.230
  H     -255.186     305.407     996.912

 6  7  8  9  10  11  12  13  14  15  16  26  31  32  33  34  35 0
 6-311+G(2d,p)
 ****
 36  37 0
 6-311+G(2d,p)
 ****
 1  2  3  4  5  17  18  19  20  21  22  23  24  25 0
 3-21G
 ****
 27  28  29  30  38  39  40  41  42  43  44  45 0
 3-21G
 ****


