%nproc=1
%NoSave
%Mem=1900MB
#P OB98/GEN NMR

erre ene a

0 1
  C      146.727     149.955     356.917
  O      145.932     150.926     357.593
  P      144.335     150.808     357.431
  C      144.012     152.816     355.800
  O      143.973     151.403     355.991
  C      143.581     153.170     354.379
  O      144.521     152.631     353.426
  C      142.224     152.609     353.969
  O      141.165     153.348     354.553
  C      142.318     152.723     352.457
  O      142.066     154.078     352.041
  C      143.792     152.354     352.198
  N      143.896     149.019     348.311
  C      143.649     150.352     348.347
  N      143.618     151.164     349.423
  C      143.888     150.475     350.549
  C      144.133     149.115     350.664
  C      144.140     148.373     349.474
  N      144.392     147.016     349.434
  N      144.342     148.769     351.984
  C      144.228     149.902     352.654
  N      143.965     150.959     351.833
  O      143.789     151.923     358.442
  O      143.775     149.455     357.728
  H      142.797     154.632     352.394
  H      142.950     151.640     358.850
  H      143.451     150.822     347.393
  H      144.338     149.995     353.724
  H      144.242     152.965     351.404
  H      141.599     152.079     351.926
  H      142.140     151.554     354.260
  H      143.584     154.265     354.280
  H      145.032     153.176     355.960
  H      144.225     146.535     348.564
  H      144.418     146.513     350.316
  H      143.359     153.292     356.536
  P      139.767     152.588     354.769
  C      138.870     153.608     352.583
  O      139.195     152.411     353.265
  O      138.845     153.767     355.351
  O      139.842     151.346     355.586
  H      138.914     154.578     354.825
  H      138.546     153.350     351.575
  H      139.741     154.263     352.514
  H      138.053     154.127     353.093
  H      147.762     150.147     357.107
  H      146.541     150.012     355.865
  H      146.475     148.978     357.272

 3  4  5  6  7  8  9  10  11  12  22  25  29  30  31  32 0
 6-311+G(2d,p)
 ****
 33  36  37 0
 6-311+G(2d,p)
 ****
 1  2  13  14  15  16  17  18  19  20  21  23  24  26 0
 3-21G
 ****
 27  28  34  35  38  39  40  41  42  43  44  45  46  47  48 0
 3-21G
 ****


