%nproc=1
%NoSave
%Mem=1900MB
#P OB98/GEN NMR

erre ene a

0 1
  C     -489.342    -649.340     -50.403
  O     -489.940    -649.314     -49.089
  P     -490.483    -650.682     -48.453
  C     -493.039    -650.694     -48.964
  O     -492.015    -650.525     -48.001
  C     -494.285    -649.869     -48.613
  O     -494.892    -650.371     -47.388
  C     -494.013    -648.369     -48.390
  O     -495.177    -647.656     -48.828
  C     -493.883    -648.280     -46.885
  O     -494.070    -646.960     -46.380
  C     -494.968    -649.271     -46.456
  N     -494.842    -649.746     -45.078
  C     -495.293    -648.920     -44.055
  O     -495.736    -647.783     -44.230
  N     -495.195    -649.427     -42.785
  C     -494.657    -650.643     -42.443
  O     -494.564    -651.020     -41.280
  C     -494.169    -651.457     -43.563
  C     -494.284    -650.978     -44.806
  O     -489.719    -650.715     -47.040
  O     -490.175    -651.920     -49.233
  H     -494.160    -647.032     -45.414
  H     -489.350    -651.607     -46.891
  H     -495.526    -648.837     -42.036
  H     -493.745    -652.428     -43.326
  H     -493.950    -651.579     -45.641
  H     -495.955    -648.814     -46.590
  H     -492.886    -648.613     -46.585
  H     -493.126    -648.010     -48.923
  H     -495.024    -650.005     -49.409
  H     -493.317    -651.749     -49.018
  H     -492.654    -650.395     -49.953
  P     -495.107    -646.871     -50.235
  C     -494.922    -644.441     -49.280
  O     -495.692    -645.401     -49.981
  O     -496.302    -647.605     -51.028
  O     -493.794    -646.966     -50.935
  H     -497.101    -647.711     -50.486
  H     -493.874    -644.479     -49.575
  H     -495.008    -644.612     -48.210
  H     -495.315    -643.449     -49.512
  H     -489.036    -648.352     -50.675
  H     -490.057    -649.700     -51.113
  H     -488.490    -649.988     -50.395

 3  4  5  6  7  8  9  10  11  12  13  23  28  29  30  31  32 0
 6-311+G(2d,p)
 ****
 33  34 0
 6-311+G(2d,p)
 ****
 1  2  14  15  16  17  18  19  20  21  22  24  25  26 0
 3-21G
 ****
 27  35  36  37  38  39  40  41  42  43  44  45 0
 3-21G
 ****


