%nproc=1
%NoSave
%Mem=1900MB
#P OB98/GEN NMR

erre ene a

0 1
  C       56.635    -430.513    -341.131
  O       56.101    -431.837    -341.257
  P       57.005    -433.055    -340.731
  C       58.438    -433.474    -342.852
  O       58.414    -433.033    -341.504
  C       59.778    -434.133    -343.205
  O       60.878    -433.177    -343.080
  C       60.131    -435.321    -342.305
  O       60.921    -436.249    -343.071
  C       61.014    -434.689    -341.249
  O       61.801    -435.666    -340.563
  C       61.803    -433.697    -342.107
  N       65.551    -432.469    -338.950
  C       65.240    -433.682    -339.540
  N       66.075    -434.715    -339.276
  N       64.210    -433.871    -340.321
  C       63.483    -432.739    -340.526
  C       63.685    -431.484    -339.989
  C       64.819    -431.305    -339.115
  O       65.130    -430.252    -338.548
  N       62.715    -430.602    -340.414
  C       61.932    -431.329    -341.192
  N       62.376    -432.620    -341.318
  O       56.264    -434.341    -341.341
  O       57.093    -433.140    -339.240
  H       62.388    -436.092    -341.230
  H       55.808    -434.828    -340.627
  H       66.358    -432.394    -338.352
  H       61.035    -430.971    -341.680
  H       62.631    -434.176    -342.642
  H       60.395    -434.167    -340.511
  H       66.918    -434.627    -338.726
  H       59.267    -435.844    -341.884
  H       65.896    -435.599    -339.728
  H       59.746    -434.451    -344.258
  H       58.262    -432.628    -343.532
  H       57.600    -434.163    -343.022
  P       60.331    -437.728    -343.258
  C       62.054    -438.756    -341.604
  O       60.693    -438.525    -341.915
  O       61.295    -438.385    -344.355
  O       58.892    -437.781    -343.672
  H       60.839    -439.096    -344.828
  H       62.368    -438.060    -340.821
  H       62.705    -438.627    -342.480
  H       62.161    -439.784    -341.234
  H       55.931    -429.806    -341.519
  H       57.550    -430.444    -341.681
  H       56.822    -430.301    -340.099

 3  4  5  6  7  8  9  10  11  12  23  26  30  31 0
 6-311+G(2d,p)
 ****
 33  35  36  37  38 0
 6-311+G(2d,p)
 ****
 1  2  13  14  15  16  17  18  19  20  21  22  24  25 0
 3-21G
 ****
 27  28  29  32  34  39  40  41  42  43  44  45  46  47  48  49 0
 3-21G
 ****


