%nproc=1
%NoSave
%Mem=1900MB
#P OB98/GEN NMR

erre ene a

0 1
  C     -635.925     873.198     150.475
  O     -634.738     873.842     150.002
  P     -634.815     875.390     149.593
  C     -635.631     876.820     147.591
  O     -635.378     875.502     148.081
  C     -635.470     876.870     146.068
  O     -634.052     876.932     145.692
  C     -636.056     875.625     145.365
  O     -636.587     875.978     144.081
  C     -634.832     874.754     145.142
  O     -635.056     873.794     144.110
  C     -633.778     875.817     144.819
  N     -629.681     873.723     142.556
  C     -630.873     874.152     142.048
  N     -631.906     874.721     142.713
  C     -631.615     874.850     144.026
  C     -630.456     874.481     144.680
  C     -629.446     873.880     143.881
  N     -628.245     873.417     144.386
  N     -630.518     874.762     146.021
  C     -631.744     875.259     146.196
  N     -632.425     875.352     145.008
  O     -633.584     876.193     149.863
  O     -636.043     875.936     150.472
  H     -635.079     874.282     143.265
  H     -635.824     876.818     150.826
  H     -630.998     873.996     140.981
  H     -632.164     875.531     147.149
  H     -633.870     876.184     143.786
  H     -634.584     874.222     146.062
  H     -636.832     875.109     145.942
  H     -635.936     877.784     145.688
  H     -634.930     877.527     148.060
  H     -627.647     872.913     143.773
  H     -628.121     873.388     145.404
  H     -636.631     877.135     147.906
  P     -638.173     875.753     143.886
  C     -639.601     873.642     143.286
  O     -638.391     874.165     143.771
  O     -638.773     876.591     142.801
  O     -638.737     876.109     145.357
  H     -638.275     875.662     146.087
  H     -639.490     872.565     143.160
  H     -639.861     874.082     142.314
  H     -640.402     873.830     144.008
  H     -635.709     872.175     150.704
  H     -636.680     873.242     149.718
  H     -636.273     873.695     151.356

 3  4  5  6  7  8  9  10  11  12  22  25  29  30  31  32 0
 6-311+G(2d,p)
 ****
 33  36  37 0
 6-311+G(2d,p)
 ****
 1  2  13  14  15  16  17  18  19  20  21  23  24  26 0
 3-21G
 ****
 27  28  34  35  38  39  40  41  42  43  44  45  46  47  48 0
 3-21G
 ****


