%nproc=1
%NoSave
%Mem=1900MB
#P OB98/GEN NMR

erre ene a

0 1
  C      -90.015    -436.561     303.636
  O      -89.147    -435.901     304.532
  P      -89.550    -435.832     306.082
  C      -87.212    -436.549     306.982
  O      -88.214    -435.541     306.922
  C      -86.056    -436.098     307.886
  O      -85.349    -434.991     307.235
  C      -86.489    -435.606     309.273
  O      -85.450    -435.964     310.194
  C      -86.519    -434.102     309.102
  O      -86.462    -433.396     310.321
  C      -85.295    -433.912     308.189
  N      -85.271    -432.607     307.532
  C      -85.087    -431.487     308.335
  O      -84.933    -431.531     309.554
  N      -85.127    -430.278     307.693
  C      -85.434    -430.078     306.377
  O      -85.579    -428.960     305.889
  C      -85.632    -431.297     305.573
  C      -85.546    -432.486     306.174
  O      -89.896    -437.353     306.443
  O      -90.684    -434.918     306.390
  H      -87.193    -433.716     310.887
  H      -90.862    -437.493     306.443
  H      -84.981    -429.454     308.255
  H      -85.848    -431.174     304.524
  H      -85.707    -433.402     305.615
  H      -84.375    -434.038     308.774
  H      -87.446    -433.818     308.589
  H      -87.454    -436.021     309.600
  H      -85.340    -436.922     307.972
  H      -86.836    -436.744     305.979
  H      -87.651    -437.482     307.356
  P      -85.892    -436.695     311.564
  C      -83.680    -437.941     312.217
  O      -84.554    -436.854     312.438
  O      -86.180    -438.178     311.030
  O      -87.053    -436.056     312.245
  H      -85.506    -438.489     310.402
  H      -83.644    -438.218     311.161
  H      -84.008    -438.804     312.805
  H      -82.670    -437.655     312.537
  H      -89.606    -436.520     302.648
  H      -90.971    -436.081     303.647
  H      -90.125    -437.583     303.934

 3  4  5  6  7  8  9  10  11  12  13  23  28  29  30  31  32 0
 6-311+G(2d,p)
 ****
 33  34 0
 6-311+G(2d,p)
 ****
 1  2  14  15  16  17  18  19  20  21  22  24  25  26 0
 3-21G
 ****
 27  35  36  37  38  39  40  41  42  43  44  45 0
 3-21G
 ****


