%nproc=1
%NoSave
%Mem=1900MB
#P OB98/GEN NMR

erre ene a

0 1
  C     -893.010     484.244     374.348
  O     -892.560     483.484     373.208
  P     -893.450     483.333     371.890
  C     -894.890     481.440     372.846
  O     -894.900     482.750     372.249
  C     -896.290     480.762     372.795
  O     -896.710     480.464     371.424
  C     -896.390     479.432     373.577
  O     -897.740     479.377     374.063
  C     -896.150     478.413     372.507
  O     -896.600     477.103     372.850
  C     -896.910     479.055     371.344
  N     -898.240     476.210     367.256
  C     -898.950     476.689     368.306
  N     -898.550     477.460     369.317
  C     -897.230     477.801     369.200
  C     -896.370     477.386     368.163
  C     -896.940     476.549     367.184
  N     -896.190     476.018     366.160
  N     -895.100     477.883     368.401
  C     -895.230     478.585     369.534
  N     -896.460     478.540     370.036
  O     -892.770     482.625     370.763
  O     -893.760     484.859     371.447
  H     -897.560     477.124     372.921
  H     -893.620     484.955     370.495
  H     -900.000     476.402     368.301
  H     -894.390     479.083     369.987
  H     -898.010     478.864     371.422
  H     -895.060     478.334     372.290
  H     -895.690     479.388     374.422
  H     -897.020     481.492     373.159
  H     -894.580     481.512     373.860
  H     -896.630     475.364     365.530
  H     -895.190     476.166     366.136
  H     -894.180     480.811     372.276
  P     -898.100     479.641     375.598
  C     -897.070     477.694     376.893
  O     -896.890     479.021     376.471
  O     -899.470     479.192     376.010
  O     -897.930     481.223     375.793
  H     -898.400     481.511     376.598
  H     -897.780     477.648     377.738
  H     -896.110     477.301     377.219
  H     -897.450     477.059     376.063
  H     -892.264     484.214     375.114
  H     -893.921     483.823     374.720
  H     -893.180     485.259     374.055

 3  4  5  6  7  8  9  10  11  12  22  25  29  30  31  32 0
 6-311+G(2d,p)
 ****
 33  36  37 0
 6-311+G(2d,p)
 ****
 1  2  13  14  15  16  17  18  19  20  21  23  24  26 0
 3-21G
 ****
 27  28  34  35  38  39  40  41  42  43  44  45  46  47  48 0
 3-21G
 ****


