%nproc=1
%NoSave
%Mem=1900MB
#P OB98/GEN NMR

erre ene a

0 1
  C       89.045      93.143     -56.590
  O       88.620      93.772     -57.782
  H       88.164      92.870     -56.003
  H       89.661      93.828     -56.002
  H       89.611      92.236     -56.820
  P       89.767      94.215     -58.812
  C       90.541      91.739     -58.985
  O       90.907      93.089     -58.726
  C       91.602      91.077     -59.860
  O       91.322      89.662     -59.967
  C       91.646      91.596     -61.292
  O       92.337      92.828     -61.388
  C       92.351      90.447     -62.001
  O       93.775      90.538     -61.865
  C       91.830      89.219     -61.244
  N       90.772      86.776     -65.590
  C       91.917      87.306     -65.107
  N       92.120      87.926     -63.925
  C       90.983      87.963     -63.211
  C       89.741      87.472     -63.575
  C       89.655      86.849     -64.830
  N       88.482      86.342     -65.336
  N       88.808      87.741     -62.593
  C       89.477      88.373     -61.650
  N       90.793      88.524     -61.979
  O       90.428      95.481     -58.086
  O       89.295      94.542     -60.188
  H       94.149      89.759     -62.319
  H       90.021      96.300     -58.423
  H       92.784      87.224     -65.758
  H       89.053      88.745     -60.725
  H       92.625      88.491     -61.040
  H       92.127      90.443     -63.069
  H       90.629      91.689     -61.693
  H       92.578      91.194     -59.373
  H       89.579      91.719     -59.508
  H       90.441      91.210     -58.032
  H       88.489      85.929     -66.255
  H       87.623      86.487     -64.824
  P       92.286      93.627     -62.775
  C       90.590      95.504     -62.176
  O       90.837      94.306     -62.893
  O       92.250      92.460     -63.869
  O       93.426      94.565     -62.996
  H       93.136      92.326     -64.253
  H       89.586      95.828     -62.357
  H       91.273      96.261     -62.500
  H       90.724      95.327     -61.129

 6  7  8  9  10  11  12  13  14  15  25  28  32  33  34  35 0
 6-311+G(2d,p)
 ****
 36  37  40 0
 6-311+G(2d,p)
 ****
 1  2  3  4  5  16  17  18  19  20  21  22  23  24 0
 3-21G
 ****
 26  27  29  30  31  38  39 41  42  43  44  45  46  47  48 0
 3-21G
 ****


