%nproc=1
%NoSave
%Mem=1900MB
#P OB98/GEN NMR

erre ene a

0 1
  C     -240.951     369.281      85.358
  O     -239.606     369.700      85.272
  H     -241.091     368.414      84.708
  H     -241.610     370.087      85.018
  H     -241.214     369.000      86.380
  P     -239.041     370.713      86.376
  C     -237.840     372.171      84.617
  O     -238.811     372.125      85.651
  C     -237.841     373.532      83.912
  O     -238.998     373.628      83.044
  C     -237.966     374.664      84.935
  O     -237.345     375.870      84.485
  C     -239.470     374.879      85.028
  O     -239.822     376.167      85.518
  C     -239.883     374.630      83.573
  N     -244.647     375.891      82.254
  C     -243.531     376.696      82.374
  N     -243.712     378.012      82.134
  N     -242.349     376.252      82.721
  C     -242.333     374.924      83.003
  C     -243.377     374.026      82.943
  C     -244.675     374.528      82.525
  O     -245.699     373.860      82.417
  N     -242.982     372.769      83.322
  C     -241.703     372.903      83.618
  N     -241.253     374.193      83.424
  O     -237.540     370.206      86.626
  O     -239.817     370.779      87.655
  H     -240.773     376.150      85.737
  H     -237.234     370.469      87.514
  H     -245.530     376.279      81.972
  H     -241.053     372.109      83.967
  H     -239.763     375.540      82.975
  H     -239.881     374.139      85.719
  H     -244.627     378.426      82.043
  H     -237.540     374.387      85.908
  H     -242.994     378.652      82.501
  H     -236.954     373.633      83.276
  H     -238.090     371.379      83.900
  H     -236.847     371.943      85.018
  P     -235.987     376.316      85.206
  C     -237.055     377.792      87.093
  O     -236.324     376.632      86.745
  O     -235.677     377.752      84.566
  O     -234.856     375.360      85.007
  H     -234.947     377.683      83.922
  H     -237.179     377.830      88.155
  H     -238.015     377.763      86.622
  H     -236.523     378.661      86.765

 6  7  8  9  10  11  12  13  14  15  26  29  33  34 0
 6-311+G(2d,p)
 ****
 36  38  39  40  41 0
 6-311+G(2d,p)
 ****
 1  2  3  4  5  16  17  18  19  20  21  22  23  24  25 0
 3-21G
 ****
 27  28  30  31  32  35  37  42  43  44  45  46  47 0
 3-21G
 ****
 48  49 0
 3-21G
 ****


