%nproc=1
%NoSave
%Mem=1900MB
#P OB98/GEN NMR

erre ene a

0 1
  C     -191.842     298.489      -1.353
  O     -192.712     297.429      -0.994
  P     -193.544     296.642      -2.113
  C     -195.778     297.843      -1.671
  O     -195.072     296.615      -1.607
  C     -197.281     297.617      -1.489
  O     -197.743     296.716      -2.524
  C     -197.642     297.000      -0.145
  O     -198.889     297.546       0.298
  C     -197.849     295.529      -0.456
  O     -198.739     294.913       0.500
  C     -198.384     295.590      -1.887
  N     -200.309     291.406      -4.154
  C     -200.905     292.425      -3.504
  N     -200.332     293.490      -2.903
  C     -198.992     293.470      -3.073
  C     -198.250     292.498      -3.722
  C     -198.961     291.415      -4.280
  N     -198.352     290.384      -4.957
  N     -196.897     292.798      -3.669
  C     -196.839     293.942      -3.022
  N     -198.083     294.398      -2.650
  O     -192.995     295.313      -2.497
  O     -193.597     297.647      -3.361
  H     -198.929     294.007       0.178
  H     -193.517     297.156      -4.198
  H     -201.992     292.379      -3.447
  H     -195.930     294.480      -2.790
  H     -199.468     295.756      -1.913
  H     -196.892     295.001      -0.402
  H     -196.874     297.158       0.618
  H     -197.797     298.576      -1.633
  H     -195.596     298.301      -2.652
  H     -198.952     289.720      -5.426
  H     -197.373     290.483      -5.199
  H     -195.392     298.527      -0.904
  P     -198.920     298.068       1.824
  C     -200.801     296.483       2.705
  O     -200.431     297.786       2.316
  O     -198.417     299.468       1.954
  O     -198.028     296.956       2.555
  H     -198.028     296.115       2.061
  H     -201.862     296.486       2.970
  H     -200.224     296.179       3.591
  H     -200.632     295.771       1.892
  H     -191.380     298.885      -0.473
  H     -192.401     299.260      -1.840
  H     -191.087     298.122      -2.017

 3  4  5  6  7  8  9  10  11  12  22  25  29  30  31  32 0
 6-311+G(2d,p)
 ****
 33  36  37 0
 6-311+G(2d,p)
 ****
 1  2  13  14  15  16  17  18  19  20  21  23  24  26 0
 3-21G
 ****
 27  28  34  35  38  39  40  41  42  43  44  45  46  47  48 0
 3-21G
 ****


