%nproc=1
%NoSave
%Mem=1900MB
#P OB98/GEN NMR

erre ene a

0 1
  C     1209.992    -211.640     -52.042
  O     1211.350    -211.997     -52.237
  H     1209.948    -210.575     -51.793
  H     1209.565    -212.210     -51.219
  H     1209.411    -211.807     -52.955
  P     1211.682    -213.466     -52.781
  C     1213.381    -214.018     -50.921
  O     1212.134    -214.349     -51.515
  C     1213.693    -214.995     -49.792
  O     1212.910    -214.656     -48.614
  C     1213.340    -216.447     -50.107
  O     1214.282    -217.028     -50.990
  C     1213.294    -217.043     -48.716
  O     1214.612    -217.370     -48.252
  C     1212.699    -215.884     -47.882
  N     1211.274    -216.085     -47.599
  C     1210.918    -216.196     -46.262
  O     1211.738    -216.120     -45.337
  N     1209.601    -216.464     -46.009
  C     1208.653    -216.774     -46.959
  O     1207.559    -217.242     -46.679
  C     1209.066    -216.577     -48.346
  C     1210.342    -216.264     -48.607
  O     1212.612    -213.529     -53.955
  O     1210.240    -214.072     -53.144
  H     1210.115    -214.031     -54.113
  H     1214.943    -218.056     -48.876
  H     1209.349    -216.589     -45.036
  H     1208.327    -216.735     -49.123
  H     1210.688    -216.155     -49.634
  H     1213.228    -215.782     -46.928
  H     1212.693    -217.953     -48.690
  H     1212.334    -216.495     -50.554
  H     1214.757    -214.899     -49.523
  H     1213.331    -213.001     -50.514
  H     1214.166    -214.055     -51.680
  P     1213.962    -218.419     -51.714
  C     1216.146    -219.507     -50.907
  O     1214.729    -219.589     -50.929
  O     1214.172    -218.423     -53.202
  O     1212.422    -218.693     -51.361
  H     1211.942    -218.895     -52.180
  H     1216.543    -220.336     -50.359
  H     1216.443    -218.593     -50.437
  H     1216.520    -219.530     -51.909

 6  7  8  9  10  11  12  13  14  15  16  27  31  32  33  34  35 0
 6-311+G(2d,p)
 ****
 36  37 0
 6-311+G(2d,p)
 ****
 1  2  3  4  5  17  18  19  20  21  22  23  24  25 0
 3-21G
 ****
 26  28  29  30  38  39  40  41  42  43  44  45 0
 3-21G
 ****


