%nproc=1
%NoSave
%Mem=1900MB
#P OB98/GEN NMR

erre ene a

0 1
  C     -144.965     184.417     492.032
  O     -144.868     185.380     493.077
  P     -144.698     185.028     494.627
  C     -142.093     184.731     494.555
  O     -143.215     185.433     495.068
  C     -140.750     185.272     495.075
  O     -140.606     186.664     494.690
  C     -140.716     185.245     496.603
  O     -140.363     184.051     497.285
  C     -139.875     186.450     496.992
  O     -138.496     186.116     497.192
  C     -140.031     187.388     495.793
  N     -140.135     192.436     496.642
  C     -139.050     191.609     496.435
  N     -137.827     192.181     496.504
  N     -139.151     190.329     496.191
  C     -140.421     189.866     496.232
  C     -141.576     190.582     496.451
  C     -141.456     192.010     496.661
  O     -142.387     192.789     496.842
  N     -142.680     189.770     496.444
  C     -142.197     188.560     496.247
  N     -140.820     188.566     496.103
  O     -145.185     183.679     495.036
  O     -145.628     186.125     495.359
  H     -138.207     185.582     496.437
  H     -145.985     185.696     496.162
  H     -140.001     193.419     496.799
  H     -142.784     187.653     496.189
  H     -139.052     187.756     495.450
  H     -140.227     186.877     497.936
  H     -137.678     193.133     496.805
  H     -141.731     185.473     496.949
  H     -137.027     191.548     496.568
  H     -139.913     184.746     494.612
  H     -142.142     184.811     493.463
  H     -142.176     183.668     494.790
  P     -141.136     183.411     498.532
  C     -141.905     181.359     497.204
  O     -141.179     181.823     498.327
  O     -142.664     183.833     498.301
  O     -140.656     183.865     499.876
  H     -143.177     183.722     499.125
  H     -142.122     180.295     497.336
  H     -141.305     181.490     496.299
  H     -142.854     181.904     497.096
  H     -145.072     184.919     491.093
  H     -145.816     183.792     492.201
  H     -144.079     183.817     492.017

 3  4  5  6  7  8  9  10  11  12  23  26  30  31 0
 6-311+G(2d,p)
 ****
 33  35  36  37  38 0
 6-311+G(2d,p)
 ****
 1  2  13  14  15  16  17  18  19  20  21  22  24  25 0
 3-21G
 ****
 27  28  29  32  34  39  40  41  42  43  44  45  46  47  48  49 0
 3-21G
 ****


