%nproc=1
%NoSave
%Mem=1900MB
#P OB98/GEN NMR

erre ene a

0 1
  C     -966.966    1050.044     -96.827
  O     -966.011    1049.146     -96.270
  P     -965.961    1047.605     -96.720
  C     -966.278    1046.816     -94.296
  O     -966.819    1046.824     -95.613
  C     -966.238    1045.384     -93.751
  O     -967.525    1044.767     -93.974
  C     -965.230    1044.451     -94.428
  O     -963.910    1044.541     -93.906
  C     -965.821    1043.095     -94.064
  O     -965.483    1042.763     -92.710
  C     -967.326    1043.354     -94.193
  N     -969.240    1039.513     -96.985
  C     -968.832    1039.580     -95.697
  N     -968.308    1040.639     -95.033
  C     -968.279    1041.714     -95.822
  C     -968.665    1041.812     -97.144
  C     -969.179    1040.646     -97.735
  N     -969.613    1040.591     -99.046
  N     -968.459    1043.096     -97.631
  C     -967.976    1043.760     -96.603
  N     -967.868    1042.978     -95.486
  O     -964.581    1047.083     -96.968
  O     -966.902    1047.550     -98.009
  H     -965.973    1041.948     -92.476
  H     -966.719    1046.715     -98.521
  H     -968.926    1038.655     -95.132
  H     -967.699    1044.807     -96.624
  H     -967.906    1042.823     -93.424
  H     -965.449    1042.284     -94.698
  H     -965.246    1044.571     -95.514
  H     -966.066    1045.435     -92.671
  H     -966.940    1047.412     -93.655
  H     -970.082    1039.732     -99.341
  H     -969.719    1041.456     -99.554
  H     -965.291    1047.270     -94.285
  P     -962.699    1044.509     -94.976
  C     -963.036    1042.103     -95.928
  O     -963.155    1043.495     -96.122
  O     -961.370    1044.265     -94.378
  O     -962.831    1045.946     -95.685
  H     -963.627    1046.076     -96.225
  H     -963.538    1041.582     -96.748
  H     -963.505    1041.794     -94.982
  H     -961.980    1041.808     -95.933
  H     -966.834    1051.016     -96.399
  H     -967.954    1049.691     -96.614
  H     -966.828    1050.100     -97.887

 3  4  5  6  7  8  9  10  11  12  22  25  29  30  31  32 0
 6-311+G(2d,p)
 ****
 33  36  37 0
 6-311+G(2d,p)
 ****
 1  2  13  14  15  16  17  18  19  20  21  23  24  26 0
 3-21G
 ****
 27  28  34  35  38  39  40  41  42  43  44  45  46  47  48 0
 3-21G
 ****


