%nproc=1
%NoSave
%Mem=1900MB
#P OB98/GEN NMR

erre ene a

0 1
  C       38.750     100.588     271.432
  O       39.069     101.945     271.667
  H       39.663      99.995     271.517
  H       38.348     100.467     270.423
  H       38.027     100.224     272.167
  P       37.874     103.007     271.804
  C       38.053     102.601     274.345
  O       37.185     102.748     273.227
  C       37.262     102.111     275.556
  O       38.142     101.931     276.686
  C       36.179     103.077     276.022
  O       35.053     103.029     275.168
  C       35.935     102.563     277.435
  O       35.083     101.408     277.418
  C       37.371     102.185     277.878
  N       38.005     103.210     278.707
  C       37.429     103.442     279.954
  O       36.419     102.857     280.345
  N       38.050     104.382     280.730
  C       39.110     105.158     280.358
  O       39.596     106.030     281.074
  C       39.656     104.893     279.019
  C       39.088     103.948     278.268
  O       36.927     103.072     270.651
  O       38.635     104.401     272.020
  H       34.176     101.731     277.251
  H       38.658     104.895     271.180
  H       37.640     104.573     281.630
  H       40.493     105.491     278.685
  H       39.471     103.739     277.272
  H       37.355     101.245     278.449
  H       35.449     103.301     278.073
  H       36.581     104.095     276.085
  H       36.829     101.133     275.307
  H       38.501     103.574     274.572
  H       38.845     101.893     274.087
  P       33.740     103.879     275.497
  C       34.513     105.550     273.721
  O       34.016     105.393     275.043
  O       33.217     103.732     276.889
  O       32.668     103.368     274.426
  H       32.006     102.792     274.863
  H       34.663     106.590     273.517
  H       33.807     105.148     273.024
  H       35.443     105.030     273.626

 6  7  8  9  10  11  12  13  14  15  16  26  31  32  33  34  35 0
 6-311+G(2d,p)
 ****
 36  37 0
 6-311+G(2d,p)
 ****
 1  2  3  4  5  17  18  19  20  21  22  23  24  25 0
 3-21G
 ****
 27  28  29  30  38  39  40  41  42  43  44  45 0
 3-21G
 ****


