%nproc=1
%NoSave
%Mem=1900MB
#P OB98/GEN NMR

erre ene a

0 1
  C      635.929    -520.118     357.361
  O      635.782    -521.370     358.009
  H      636.127    -520.296     356.295
  H      636.772    -519.573     357.787
  H      635.010    -519.528     357.452
  P      635.398    -521.336     359.566
  C      637.900    -521.117     360.213
  O      636.693    -521.850     360.365
  C      639.054    -521.811     360.938
  O      638.723    -521.914     362.355
  C      639.354    -523.233     360.433
  O      640.771    -523.438     360.525
  C      638.677    -524.117     361.469
  O      639.215    -525.435     361.497
  C      638.938    -523.294     362.737
  N      638.543    -526.427     366.653
  C      639.576    -526.234     365.762
  N      640.681    -526.996     365.933
  N      639.548    -525.368     364.776
  C      638.383    -524.654     364.746
  C      637.290    -524.751     365.567
  C      637.343    -525.724     366.636
  O      636.441    -525.955     367.438
  N      636.303    -523.863     365.182
  C      636.816    -523.237     364.131
  N      638.072    -523.685     363.833
  O      634.364    -522.551     359.694
  O      634.813    -520.051     360.053
  H      640.156    -525.362     361.770
  H      633.448    -522.231     359.596
  H      638.613    -527.114     367.388
  H      636.310    -522.464     363.571
  H      639.971    -523.391     363.090
  H      637.599    -524.184     361.264
  H      640.806    -527.646     366.698
  H      639.013    -523.427     359.413
  H      641.473    -526.835     365.316
  H      639.948    -521.165     360.873
  H      637.758    -520.109     360.636
  H      638.132    -521.023     359.147
  P      641.686    -522.912     359.317
  C      641.423    -525.057     357.862
  O      642.305    -524.186     358.559
  O      642.961    -522.290     360.077
  O      641.024    -521.893     358.438
  H      643.358    -521.582     359.545
  H      641.985    -525.850     357.414
  H      640.909    -524.509     357.100
  H      640.711    -525.467     358.548

 6  7  8  9  10  11  12  13  14  15  26  29  33  34 0
 6-311+G(2d,p)
 ****
 36  38  39  40  41 0
 6-311+G(2d,p)
 ****
 1  2  3  4  5  16  17  18  19  20  21  22  23  24  25 0
 3-21G
 ****
 27  28  30  31  32  35  37  42  43  44  45  46  47 0
 3-21G
 ****
 48  49 0
 3-21G
 ****


