%nproc=1
%NoSave
%Mem=1900MB
#P OB98/GEN NMR

erre ene a

0 1
  C     -425.097     657.956     -38.551
  O     -423.894     658.569     -38.996
  P     -423.816     659.042     -40.528
  C     -422.687     656.842     -41.294
  O     -423.813     657.706     -41.423
  C     -422.160     656.442     -42.672
  O     -420.941     655.659     -42.496
  C     -423.138     655.598     -43.504
  O     -423.138     656.070     -44.858
  C     -422.514     654.209     -43.492
  O     -422.908     653.431     -44.622
  C     -421.029     654.577     -43.456
  N     -418.679     650.407     -45.117
  C     -419.299     651.419     -45.830
  N     -419.341     651.262     -47.175
  N     -419.826     652.482     -45.278
  C     -419.680     652.521     -43.929
  C     -419.093     651.581     -43.113
  C     -418.558     650.376     -43.737
  O     -418.081     649.407     -43.147
  N     -419.119     651.979     -41.797
  C     -419.733     653.141     -41.825
  N     -420.137     653.493     -43.078
  O     -422.318     659.589     -40.658
  O     -424.809     660.085     -40.925
  H     -422.892     654.036     -45.395
  H     -422.329     660.517     -40.975
  H     -418.316     649.598     -45.588
  H     -419.940     653.750     -40.941
  H     -420.702     654.957     -44.425
  H     -422.826     653.679     -42.581
  H     -418.922     650.501     -47.663
  H     -424.170     655.601     -43.120
  H     -419.769     652.018     -47.719
  H     -421.872     657.354     -43.218
  H     -422.968     655.938     -40.753
  H     -421.907     657.368     -40.733
  P     -424.536     656.631     -45.428
  C     -425.605     654.254     -45.414
  O     -425.659     655.591     -44.946
  O     -424.423     656.388     -47.003
  O     -424.779     658.071     -45.090
  H     -425.000     657.005     -47.486
  H     -424.674     654.040     -45.952
  H     -426.451     654.085     -46.090
  H     -425.688     653.575     -44.559
  H     -425.004     657.696     -37.517
  H     -425.281     657.073     -39.126
  H     -425.912     658.638     -38.675

 3  4  5  6  7  8  9  10  11  12  23  26  30  31  33  0
 6-311+G(2d,p)
 ****
 35  36  37  38 0
 6-311+G(2d,p)
 ****
 1  2  13  14  15  16  17  18  19  20  21  22  24  25  27  28  29 0
 3-21G
 ****
 32  34  39  40  41  42  43  44  45  46  47  48  49 0
 3-21G
 ****


