%nproc=1
%NoSave
%Mem=1900MB
#P OB98/GEN NMR

erre ene a

0 1
  C      233.483    -185.767     213.646
  O      234.062    -186.325     214.810
  H      233.162    -186.583     212.994
  H      234.216    -185.152     213.114
  H      232.613    -185.166     213.917
  P      234.638    -185.285     215.893
  C      232.750    -185.877     217.549
  O      233.346    -184.857     216.754
  C      231.352    -185.445     218.005
  O      230.546    -185.184     216.831
  C      230.631    -186.511     218.841
  O      229.882    -185.868     219.878
  C      229.671    -187.148     217.846
  O      228.541    -187.730     218.482
  C      229.348    -185.970     216.924
  N      225.783    -185.477     213.306
  C      226.005    -184.797     214.448
  N      226.999    -184.978     215.357
  C      227.830    -185.971     214.949
  C      227.727    -186.736     213.809
  C      226.631    -186.474     212.966
  N      226.382    -187.176     211.803
  N      228.751    -187.671     213.766
  C      229.454    -187.451     214.857
  N      228.932    -186.429     215.609
  O      235.445    -184.152     215.344
  O      235.417    -186.257     216.900
  H      228.860    -188.387     219.135
  H      234.890    -187.056     217.097
  H      225.299    -184.005     214.674
  H      230.351    -187.993     215.147
  H      228.537    -185.337     217.320
  H      230.196    -187.937     217.293
  H      231.314    -187.239     219.277
  H      231.438    -184.498     218.557
  H      233.376    -186.081     218.425
  H      225.581    -186.908     211.251
  H      227.024    -187.910     211.529
  H      232.689    -186.786     216.945
  P      230.620    -185.555     221.254
  C      230.309    -182.997     221.087
  O      231.239    -184.071     221.193
  O      231.549    -186.609     221.767
  O      229.383    -185.360     222.275
  H      229.636    -185.739     223.144
  H      230.839    -182.068     221.055
  H      229.656    -183.006     221.934
  H      229.734    -183.110     220.192

 6  7  8  9  10  11  12  13  14  15  25  28  32  33  34  35 0
 6-311+G(2d,p)
 ****
 36  39  40 0
 6-311+G(2d,p)
 ****
 1  2  3  4  5  16  17  18  19  20  21  22  23  24 0
 3-21G
 ****
 26  27  29  30  31  37  38  41  42  43  44  45  46  47 0
 3-21G
 ****
 48 0
 3-21G
 ****


