%nproc=1
%NoSave
%Mem=1900MB
#P OB98/GEN NMR

erre ene a

0 1
  C      184.869    -884.170     -95.111
  O      185.476    -883.266     -96.047
  P      185.915    -883.849     -97.484
  C      183.458    -883.733     -98.339
  O      184.631    -884.524     -98.154
  C      183.086    -883.652     -99.822
  O      182.746    -884.957    -100.356
  C      181.907    -882.738    -100.102
  O      182.295    -881.370    -100.176
  C      181.488    -883.234    -101.481
  O      182.346    -882.666    -102.492
  C      181.722    -884.744    -101.375
  N      177.161    -886.259    -102.961
  C      178.130    -885.530    -103.613
  N      177.849    -885.155    -104.887
  N      179.280    -885.197    -103.078
  C      179.426    -885.656    -101.816
  C      178.531    -886.396    -101.056
  C      177.271    -886.740    -101.654
  O      176.359    -887.364    -101.129
  N      179.039    -886.665     -99.819
  C      180.248    -886.121     -99.828
  N      180.518    -885.487    -101.005
  O      186.818    -885.120     -97.093
  O      186.670    -882.883     -98.334
  H      183.243    -883.003    -102.318
  H      187.470    -885.286     -97.789
  H      176.288    -886.486    -103.419
  H      180.952    -886.161     -98.998
  H      182.100    -885.187    -102.307
  H      180.461    -882.942    -101.739
  H      177.016    -885.411    -105.380
  H      181.096    -882.904     -99.386
  H      178.563    -884.643    -105.401
  H      183.974    -883.281    -100.368
  H      183.615    -882.729     -97.936
  H      182.641    -884.171     -97.749
  P      181.707    -880.362     -99.079
  C      183.438    -880.565     -97.149
  O      182.167    -880.942     -97.664
  O      180.135    -880.664     -99.126
  O      181.994    -878.930     -99.325
  H      179.627    -879.858     -98.906
  H      183.516    -880.918     -96.109
  H      183.556    -879.478     -97.165
  H      184.231    -881.040     -97.745
  H      184.633    -883.645     -94.209
  H      185.549    -884.967     -94.892
  H      183.972    -884.572     -95.534

 3  4  5  6  7  8  9  10  11  12  23  26  30  31 0
 6-311+G(2d,p)
 ****
 33  35  36  37  38 0
 6-311+G(2d,p)
 ****
 1  2  13  14  15  16  17  18  19  20  21  22  24  25 0
 3-21G
 ****
 27  28  29  32  34  39  40  41  42  43  44  45  46  47  48  49 0
 3-21G
 ****


