%nproc=1
%NoSave
%Mem=1900MB
#P OB98/GEN NMR

erre ene a

0 1
  C      149.804     377.019    -210.955
  O      149.855     376.427    -212.236
  H      148.809     377.452    -210.808
  H      150.547     377.814    -210.876
  H      149.981     376.264    -210.181
  P      151.254     375.781    -212.681
  C      150.843     376.548    -215.130
  O      151.138     375.468    -214.252
  C      151.720     376.449    -216.381
  O      153.114     376.481    -216.004
  C      151.544     375.146    -217.160
  O      150.375     375.158    -217.957
  C      152.821     375.130    -217.980
  O      152.689     375.915    -219.175
  C      153.849     375.754    -217.012
  N      154.740     374.754    -216.424
  C      155.958     374.577    -217.073
  O      156.289     375.208    -218.078
  N      156.780     373.612    -216.552
  C      156.483     372.801    -215.491
  O      157.233     371.898    -215.117
  C      155.184     373.038    -214.840
  C      154.380     373.977    -215.333
  O      151.218     374.331    -212.000
  O      152.464     376.560    -212.286
  H      151.781     374.323    -211.203
  H      152.767     376.848    -218.902
  H      157.663     373.463    -217.014
  H      154.928     372.414    -213.994
  H      153.408     374.166    -214.885
  H      154.474     376.489    -217.541
  H      153.082     374.119    -218.300
  H      151.549     374.292    -216.469
  H      151.507     377.314    -217.025
  H      151.050     377.495    -214.626
  H      149.781     376.514    -215.398
  P      149.476     373.829    -218.018
  C      149.703     373.233    -220.573
  O      148.898     373.733    -219.517
  O      148.211     374.271    -217.143
  O      150.178     372.600    -217.541
  H      147.974     375.211    -217.252
  H      149.144     373.248    -221.485
  H      149.998     372.228    -220.352
  H      150.574     373.845    -220.678

 6  7  8  9  10  11  12  13  14  15  16  27  31  32  33  34  35 0
 6-311+G(2d,p)
 ****
 36  37 0
 6-311+G(2d,p)
 ****
 1  2  3  4  5  17  18  19  20  21  22  23  24  25 0
 3-21G
 ****
 26  28  29  30  38  39  40  41  42  43  44  45 0
 3-21G
 ****


