%nproc=1
%NoSave
%Mem=1900MB
#P OB98/GEN NMR

erre ene a

0 1
  C       50.740    -370.572     353.347
  O       50.310    -371.923     353.332
  P       51.129    -373.012     352.480
  C       51.122    -374.596     354.511
  O       50.838    -374.452     353.116
  C       49.953    -375.264     355.230
  O       48.931    -374.286     355.548
  C       49.245    -376.339     354.412
  O       50.013    -377.532     354.382
  C       47.921    -376.441     355.138
  O       48.042    -377.279     356.307
  C       47.666    -374.974     355.559
  N       42.780    -374.706     354.118
  C       43.437    -375.594     354.896
  N       44.757    -375.618     355.196
  C       45.395    -374.608     354.594
  C       44.863    -373.647     353.753
  C       43.472    -373.725     353.525
  N       42.770    -372.774     352.789
  N       45.853    -372.799     353.285
  C       46.968    -373.245     353.844
  N       46.736    -374.297     354.690
  O       52.574    -372.691     352.262
  O       50.333    -373.068     351.088
  H       48.217    -378.194     355.999
  H       50.939    -372.806     350.364
  H       42.827    -376.394     355.341
  H       47.950    -372.830     353.681
  H       47.280    -374.905     356.579
  H       47.125    -376.871     354.518
  H       49.069    -375.973     353.387
  H       50.330    -375.677     356.180
  H       51.316    -373.606     354.933
  H       41.770    -372.836     352.833
  H       43.218    -371.871     352.602
  H       52.040    -375.191     354.627
  P       49.942    -378.484     353.097
  C       52.337    -379.342     353.487
  O       50.962    -379.698     353.363
  O       50.091    -377.811     351.777
  O       48.510    -379.200     353.222
  H       48.158    -379.377     352.337
  H       52.751    -379.170     352.483
  H       52.871    -380.181     353.961
  H       52.464    -378.452     354.094
  H       50.081    -369.995     353.961
  H       50.731    -370.184     352.350
  H       51.733    -370.518     353.741

 3  4  5  6  7  8  9  10  11  12  22  25  29  30  31  32 0
 6-311+G(2d,p)
 ****
 33  36  37 0
 6-311+G(2d,p)
 ****
 1  2  13  14  15  16  17  18  19  20  21  23  24  26 0
 3-21G
 ****
 27  28  34  35  38  39  40  41  42  43  44  45  46  47  48 0
 3-21G
 ****


