%nproc=1
%NoSave
%Mem=1900MB
#P OB98/GEN NMR

erre ene a

0 1
  C       15.889    -496.398     201.617
  O       16.053    -495.004     201.767
  H       16.663    -496.770     200.943
  H       14.908    -496.611     201.181
  H       15.990    -496.905     202.582
  P       15.143    -494.285     202.880
  C       16.567    -495.355     204.774
  O       15.272    -495.171     204.216
  C       16.656    -494.671     206.134
  O       16.406    -493.252     206.002
  C       15.656    -495.188     207.159
  O       16.115    -496.373     207.796
  C       15.633    -494.018     208.137
  O       16.809    -494.048     208.966
  C       15.683    -492.814     207.187
  N       11.186    -491.163     208.843
  C       12.285    -491.602     209.559
  N       12.163    -491.618     210.902
  N       13.398    -492.000     208.999
  C       13.370    -491.946     207.650
  C       12.343    -491.528     206.836
  C       11.114    -491.080     207.458
  O       10.123    -490.658     206.880
  N       12.689    -491.600     205.507
  C       13.913    -492.085     205.520
  N       14.369    -492.316     206.788
  O       13.646    -494.584     202.385
  O       15.371    -492.824     203.052
  H       16.814    -494.917     209.411
  H       13.085    -493.813     202.592
  H       10.345    -490.880     209.326
  H       14.507    -492.279     204.636
  H       16.233    -491.971     207.614
  H       14.772    -494.045     208.805
  H       11.322    -491.369     211.392
  H       14.661    -495.312     206.722
  H       12.972    -491.905     211.450
  H       17.685    -494.784     206.503
  H       17.314    -494.919     204.096
  H       16.766    -496.424     204.874
  P       15.001    -497.403     208.333
  C       14.978    -498.832     206.161
  O       14.259    -497.954     207.019
  O       13.913    -496.443     208.994
  O       15.507    -498.434     209.285
  H       13.391    -496.939     209.664
  H       14.357    -499.112     205.336
  H       15.264    -499.708     206.705
  H       15.854    -498.337     205.797

 6  7  8  9  10  11  12  13  14  15  26  29  33  34 0
 6-311+G(2d,p)
 ****
 36  38  39  40  41 0
 6-311+G(2d,p)
 ****
 1  2  3  4  5  16  17  18  19  20  21  22  23  24  25 0
 3-21G
 ****
 27  28  30  31  32  35  37  42  43  44  45  46  47 0
 3-21G
 ****
 48  49 0
 3-21G
 ****


