%nproc=1
%NoSave
%Mem=1900MB
#P OB98/GEN NMR

erre ene a

0 1
  C      300.635     -14.457     -39.274
  O      300.168     -15.457     -40.158
  H      301.540     -14.013     -39.695
  H      300.878     -14.902     -38.307
  H      299.882     -13.676     -39.148
  P      298.788     -16.179     -39.771
  C      297.335     -14.142     -40.454
  O      297.651     -15.506     -40.690
  C      296.069     -13.743     -41.209
  O      295.797     -12.330     -40.959
  C      296.154     -13.931     -42.731
  O      294.859     -14.323     -43.203
  C      296.435     -12.522     -43.231
  O      296.077     -12.346     -44.600
  C      295.594     -11.714     -42.245
  N      294.271      -7.158     -43.921
  C      293.650      -8.383     -44.067
  N      292.496      -8.400     -44.770
  N      294.118      -9.495     -43.569
  C      295.262      -9.327     -42.861
  C      295.977      -8.173     -42.649
  C      295.461      -6.950     -43.229
  O      295.977      -5.841     -43.150
  N      297.102      -8.421     -41.901
  C      297.065      -9.720     -41.664
  N      295.968     -10.312     -42.228
  O      298.487     -15.598     -38.311
  O      298.820     -17.670     -39.786
  H      295.098     -12.335     -44.656
  H      298.839     -16.201     -37.628
  H      293.875      -6.333     -44.337
  H      297.801     -10.277     -41.101
  H      294.523     -11.754     -42.480
  H      297.501     -12.288     -43.124
  H      292.052      -7.576     -45.143
  H      296.904     -14.659     -43.056
  H      292.002      -9.281     -44.851
  H      295.224     -14.304     -40.793
  H      298.169     -13.520     -40.797
  H      297.195     -13.985     -39.379
  P      294.719     -15.743     -43.928
  C      295.034     -17.296     -41.867
  O      294.153     -16.794     -42.858
  O      296.245     -16.206     -44.101
  O      294.005     -15.699     -45.237
  H      296.325     -16.794     -44.875
  H      294.507     -17.981     -41.236
  H      295.409     -16.485     -41.279
  H      295.851     -17.802     -42.339

 6  7  8  9  10  11  12  13  14  15  26  29  33  34 0
 6-311+G(2d,p)
 ****
 36  38  39  40  41 0
 6-311+G(2d,p)
 ****
 1  2  3  4  5  16  17  18  19  20  21  22  23  24  25 0
 3-21G
 ****
 27  28  30  31  32  35  37  42  43  44  45  46  47 0
 3-21G
 ****
 48  49 0
 3-21G
 ****


