%nproc=1
%NoSave
%Mem=1900MB
#P OB98/GEN NMR

erre ene a

0 1
  C      297.065    -114.355     -70.641
  O      298.284    -113.752     -71.079
  P      298.807    -114.186     -72.534
  C      297.568    -112.392     -73.945
  O      298.816    -112.880     -73.467
  C      297.781    -111.409     -75.096
  O      296.562    -111.136     -75.816
  C      298.313    -110.054     -74.646
  O      299.709    -110.133     -74.418
  C      297.947    -109.169     -75.832
  O      298.941    -109.254     -76.873
  C      296.616    -109.772     -76.308
  N      291.798    -108.676     -77.447
  C      292.758    -109.335     -78.192
  N      292.370    -109.786     -79.405
  N      293.984    -109.532     -77.785
  C      294.231    -109.028     -76.552
  C      293.356    -108.382     -75.706
  C      292.001    -108.167     -76.172
  O      291.112    -107.611     -75.540
  N      293.954    -108.069     -74.512
  C      295.216    -108.414     -74.690
  N      295.423    -109.058     -75.885
  O      297.602    -115.067     -73.110
  O      300.085    -114.957     -72.501
  H      299.811    -109.015     -76.502
  H      297.869    -116.005     -73.156
  H      290.869    -108.543     -77.813
  H      296.009    -108.246     -73.977
  H      296.568    -109.822     -77.403
  H      297.890    -108.115     -75.548
  H      291.441    -109.671     -79.780
  H      297.780    -109.719     -73.748
  H      293.056    -110.279     -79.963
  H      298.491    -111.871     -75.798
  H      297.025    -111.902     -73.136
  H      296.958    -113.244     -74.264
  P      300.295    -109.408     -73.114
  C      300.030    -111.030     -71.103
  O      300.860    -110.548     -72.142
  O      298.978    -108.884     -72.366
  O      301.236    -108.284     -73.400
  H      299.122    -107.970     -72.055
  H      300.289    -112.071     -70.897
  H      298.970    -110.976     -71.372
  H      300.202    -110.437     -70.200
  H      296.818    -113.992     -69.665
  H      297.185    -115.418     -70.607
  H      296.279    -114.107     -71.323

 3  4  5  6  7  8  9  10  11  12  23  26  30  31 0
 6-311+G(2d,p)
 ****
 33  35  36  37  38 0
 6-311+G(2d,p)
 ****
 1  2  13  14  15  16  17  18  19  20  21  22  24  25 0
 3-21G
 ****
 27  28  29  32  34  39  40  41  42  43  44  45  46  47  48  49 0
 3-21G
 ****


