%nproc=1
%NoSave
%Mem=1900MB
#P OB98/GEN NMR

erre ene a

0 1
  C      126.709     326.486    -460.456
  O      126.585     327.858    -460.136
  H      125.830     325.958    -460.077
  H      127.604     326.071    -459.980
  H      126.762     326.348    -461.542
  P      127.683     328.849    -460.763
  C      130.286     329.025    -460.442
  O      129.043     328.542    -459.963
  C      131.445     328.226    -459.845
  O      131.640     328.655    -458.470
  C      131.211     326.716    -459.828
  O      132.462     326.058    -460.059
  C      130.751     326.439    -458.407
  O      130.972     325.087    -458.019
  C      131.567     327.484    -457.625
  N      130.973     327.794    -456.324
  C      131.392     327.020    -455.242
  O      132.222     326.116    -455.406
  N      130.853     327.257    -454.001
  C      129.917     328.145    -453.871
  N      129.395     328.314    -452.627
  C      129.406     328.953    -454.999
  C      129.980     328.743    -456.181
  O      127.216     330.264    -460.185
  O      127.793     328.789    -462.247
  H      130.707     324.980    -457.080
  H      126.976     330.241    -459.241
  H      128.617     329.681    -454.841
  H      129.673     329.295    -457.059
  H      132.590     327.127    -457.460
  H      129.677     326.644    -458.309
  H      130.477     326.392    -460.579
  H      132.362     328.477    -460.386
  H      129.762     327.720    -451.881
  H      130.406     330.085    -460.190
  H      128.627     328.933    -452.411
  H      130.287     328.932    -461.536
  P      133.168     326.184    -461.490
  C      134.044     324.515    -463.264
  O      133.070     324.785    -462.262
  O      134.522     326.816    -461.487
  O      132.128     327.102    -462.314
  H      132.650     327.739    -462.841
  H      133.857     323.553    -463.693
  H      135.020     324.527    -462.825
  H      133.987     325.263    -464.027

 6  7  8  9  10  11  12  13  14  15  16  26  30  31  32  33  35 0
 6-311+G(2d,p)
 ****
 37  38 0
 6-311+G(2d,p)
 ****
 1  2  3  4  5  17  18  19  20  21  22  23  24  25 0
 3-21G
 ****
 27  28  29  34  36  39  40  41  42  43  44  45  46 0
 3-21G
 ****


