%nproc=1
%NoSave
%Mem=1900MB
#P OB98/GEN NMR

erre ene a

0 1
  C       22.764      33.188    -167.259
  O       22.687      34.125    -166.204
  H       22.307      33.600    -168.162
  H       23.815      32.970    -167.464
  H       22.260      32.259    -166.978
  P       21.221      34.610    -165.773
  C       19.815      33.698    -163.794
  O       21.052      34.259    -164.213
  C       19.885      33.325    -162.314
  O       20.796      32.207    -162.166
  C       20.367      34.457    -161.390
  O       19.383      34.732    -160.388
  C       21.602      33.890    -160.709
  O       21.689      34.231    -159.325
  C       21.459      32.386    -160.909
  N       24.752      29.759    -158.038
  C       23.421      29.955    -157.919
  N       22.583      30.574    -158.774
  C       23.245      30.997    -159.864
  C       24.594      30.853    -160.140
  C       25.367      30.213    -159.156
  N       26.734      30.064    -159.250
  N       24.912      31.426    -161.357
  C       23.782      31.946    -161.790
  N       22.752      31.729    -160.911
  O       20.257      33.559    -166.500
  O       20.884      36.016    -166.142
  H       21.706      35.205    -159.278
  H       19.538      34.034    -166.959
  H       22.968      29.567    -157.008
  H       23.661      32.522    -162.699
  H       20.839      31.922    -160.130
  H       22.497      34.275    -161.214
  H       20.606      35.378    -161.938
  H       18.896      32.977    -162.000
  H       19.606      32.794    -164.376
  H       27.224      29.703    -158.449
  H       27.216      30.499    -160.029
  H       19.014      34.423    -163.974
  P       18.493      36.056    -160.595
  C       17.464      37.085    -162.757
  O       17.737      35.910    -162.004
  O       19.592      37.185    -160.884
  O       17.633      36.397    -159.428
  H       19.252      38.058    -160.616
  H       16.960      36.819    -163.663
  H       18.383      37.579    -162.992
  H       16.843      37.741    -162.183

 6  7  8  9  10  11  12  13  14  15  25  28  32  33  34  35 0
 6-311+G(2d,p)
 ****
 36  39  40 0
 6-311+G(2d,p)
 ****
 1  2  3  4  5  16  17  18  19  20  21  22  23  24 0
 3-21G
 ****
 26  27  29  30  31  37  38  41  42  43  44  45  46  47  48 0
 3-21G
 ****


