%nproc=1
%NoSave
%Mem=1900MB
#P OB98/GEN NMR

erre ene a

0 1
  C       18.770    -243.405    -188.502
  O       17.505    -243.893    -188.102
  H       18.665    -242.923    -189.481
  H       19.491    -244.221    -188.587
  H       19.130    -242.664    -187.782
  P       17.410    -244.747    -186.749
  C       18.105    -246.963    -187.889
  O       18.420    -245.984    -186.912
  C       19.179    -248.062    -187.927
  O       20.333    -247.566    -188.666
  C       19.683    -248.488    -186.532
  O       20.070    -249.862    -186.617
  C       20.897    -247.596    -186.368
  O       21.714    -248.026    -185.305
  C       21.476    -247.653    -187.787
  N       22.439    -246.591    -188.038
  C       23.737    -246.817    -187.584
  O       24.020    -247.861    -186.987
  N       24.686    -245.847    -187.780
  C       24.348    -244.718    -188.329
  N       25.325    -243.791    -188.479
  C       22.965    -244.413    -188.770
  C       22.074    -245.392    -188.605
  O       16.032    -245.121    -186.314
  O       18.137    -243.830    -185.660
  H       21.914    -248.987    -185.384
  H       17.472    -243.413    -185.083
  H       22.734    -243.452    -189.205
  H       21.037    -245.265    -188.898
  H       21.962    -248.620    -187.966
  H       20.590    -246.570    -186.128
  H       18.927    -248.353    -185.748
  H       18.784    -248.922    -188.481
  H       26.254    -244.034    -188.150
  H       18.059    -246.460    -188.860
  H       25.181    -242.869    -188.876
  H       17.130    -247.411    -187.675
  P       19.015    -251.063    -186.730
  C       18.610    -252.000    -184.363
  O       18.135    -251.135    -185.393
  O       19.614    -252.370    -187.130
  O       17.960    -250.578    -187.841
  H       17.607    -251.360    -188.320
  H       17.942    -251.961    -183.528
  H       19.585    -251.685    -184.054
  H       18.660    -253.002    -184.734

 6  7  8  9  10  11  12  13  14  15  16  26  30  31  32  33  35 0
 6-311+G(2d,p)
 ****
 37  38 0
 6-311+G(2d,p)
 ****
 1  2  3  4  5  17  18  19  20  21  22  23  24  25 0
 3-21G
 ****
 27  28  29  34  36  39  40  41  42  43  44  45  46 0
 3-21G
 ****


