%nproc=1
%NoSave
%Mem=1900MB
#P OB98/GEN NMR

erre ene a

0 1
  C       -1.432     208.080    -180.027
  O       -1.417     206.956    -179.139
  P       -0.334     205.809    -179.435
  C        1.969     206.154    -178.299
  O        0.636     205.687    -178.159
  C        2.598     206.475    -176.936
  O        2.049     207.707    -176.389
  C        2.376     205.381    -175.884
  O        3.531     205.353    -175.034
  C        1.197     205.909    -175.088
  O        1.108     205.286    -173.808
  C        1.522     207.402    -175.078
  N       -1.269     209.484    -171.343
  C       -0.155     208.725    -171.323
  N        0.518     208.188    -172.365
  C       -0.051     208.549    -173.527
  C       -1.198     209.313    -173.706
  C       -1.822     209.793    -172.543
  N       -2.972     210.548    -172.563
  N       -1.498     209.424    -175.053
  C       -0.557     208.737    -175.669
  N        0.356     208.217    -174.792
  O        0.598     206.469    -180.556
  O       -0.930     204.522    -179.908
  H        1.142     204.313    -173.940
  H        0.431     206.046    -181.419
  H        0.250     208.511    -170.333
  H       -0.491     208.582    -176.736
  H        2.287     207.660    -174.334
  H        0.263     205.715    -175.629
  H        2.189     204.384    -176.294
  H        3.675     206.631    -177.082
  H        1.991     207.055    -178.925
  H       -3.375     210.825    -171.681
  H       -3.419     210.741    -173.449
  H        2.555     205.402    -178.841
  P        4.763     204.459    -175.535
  C        6.120     206.080    -177.044
  O        5.983     205.470    -175.772
  O        4.337     204.019    -177.015
  O        5.056     203.280    -174.663
  H        4.781     203.184    -177.260
  H        6.415     207.125    -176.904
  H        5.185     206.054    -177.616
  H        6.899     205.563    -177.606
  H       -2.194     208.766    -179.721
  H       -1.633     207.745    -181.023
  H       -0.480     208.569    -180.000

 3  4  5  6  7  8  9  10  11  12  22  25  29  30  31  32 0
 6-311+G(2d,p)
 ****
 33  36  37 0
 6-311+G(2d,p)
 ****
 1  2  13  14  15  16  17  18  19  20  21  23  24  26 0
 3-21G
 ****
 27  28  34  35  38  39  40  41  42  43  44  45  46  47  48 0
 3-21G
 ****


