%nproc=1
%NoSave
%Mem=1900MB
#P OB98/GEN NMR

erre ene a

0 1
  C      184.886    -276.129    -113.695
  O      185.630    -275.325    -112.803
  H      184.016    -276.525    -113.164
  H      185.502    -276.965    -114.038
  H      184.538    -275.552    -114.557
  P      186.683    -274.280    -113.405
  C      188.689    -274.433    -115.024
  O      187.876    -275.119    -114.080
  C      189.738    -275.353    -115.649
  O      189.098    -276.389    -116.422
  C      190.659    -274.608    -116.617
  O      191.754    -273.941    -116.020
  C      191.136    -275.740    -117.525
  O      192.271    -276.412    -116.952
  C      189.924    -276.676    -117.565
  N      189.117    -278.288    -122.346
  C      190.097    -278.672    -121.455
  N      191.014    -279.555    -121.916
  N      190.181    -278.213    -120.231
  C      189.254    -277.270    -119.941
  C      188.243    -276.798    -120.749
  C      188.127    -277.354    -122.081
  O      187.281    -277.039    -122.915
  N      187.493    -275.840    -120.109
  C      188.098    -275.679    -118.949
  N      189.157    -276.543    -118.789
  O      187.389    -273.667    -112.102
  O      186.097    -273.201    -114.262
  H      192.039    -276.685    -116.044
  H      187.723    -272.771    -112.296
  H      189.086    -278.695    -123.265
  H      187.797    -274.974    -118.179
  H      190.225    -277.726    -117.485
  H      191.449    -275.369    -118.504
  H      191.060    -279.840    -122.879
  H      190.083    -273.902    -117.224
  H      191.885    -279.651    -121.393
  H      190.305    -275.849    -114.852
  H      189.176    -273.620    -114.483
  H      188.066    -273.977    -115.802
  P      192.212    -272.504    -116.562
  C      193.710    -271.669    -118.520
  O      193.270    -272.760    -117.738
  O      193.104    -271.939    -115.360
  O      191.094    -271.582    -116.903
  H      192.571    -271.356    -114.788
  H      194.409    -272.014    -119.253
  H      194.183    -270.946    -117.889
  H      192.871    -271.220    -119.010

 6  7  8  9  10  11  12  13  14  15  26  29  33  34 0
 6-311+G(2d,p)
 ****
 36  38  39  40  41 0
 6-311+G(2d,p)
 ****
 1  2  3  4  5  16  17  18  19  20  21  22  23  24  25 0
 3-21G
 ****
 27  28  30  31  32  35  37  42  43  44  45  46  47 0
 3-21G
 ****
 48  49 0
 3-21G
 ****


