%nproc=1
%NoSave
%Mem=1900MB
#P OB98/GEN NMR

erre ene a

0 1
  C     -135.681     174.347    -240.840
  O     -135.484     173.113    -240.174
  H     -136.730     174.420    -241.141
  H     -135.060     174.409    -241.739
  H     -135.448     175.179    -240.172
  P     -133.989     172.701    -239.771
  C     -133.227     173.313    -242.167
  O     -133.262     172.321    -241.146
  C     -131.959     173.161    -243.001
  O     -130.803     173.536    -242.227
  C     -131.708     171.730    -243.455
  O     -132.563     171.383    -244.525
  C     -130.231     171.791    -243.789
  O     -130.011     172.377    -245.079
  C     -129.699     172.712    -242.666
  N     -129.123     171.967    -241.551
  C     -127.729     171.867    -241.534
  O     -127.055     172.392    -242.419
  N     -127.138     171.152    -240.524
  C     -127.868     170.602    -239.605
  N     -127.218     169.907    -238.631
  C     -129.339     170.695    -239.579
  C     -129.896     171.381    -240.574
  O     -133.839     171.676    -238.689
  O     -133.308     174.095    -239.375
  H     -130.468     173.241    -245.060
  H     -133.432     174.277    -238.425
  H     -129.909     170.225    -238.789
  H     -130.972     171.501    -240.629
  H     -128.931     173.392    -243.058
  H     -129.780     170.800    -243.796
  H     -131.838     171.040    -242.615
  H     -132.027     173.842    -243.859
  H     -126.208     169.861    -238.696
  H     -133.237     174.288    -241.669
  H     -127.673     169.513    -237.822
  H     -134.112     173.241    -242.806
  P     -133.708     170.277    -244.329
  C     -132.308     168.116    -244.178
  O     -133.127     168.940    -245.004
  O     -135.070     170.683    -244.780
  O     -133.629     169.947    -242.763
  H     -134.018     170.677    -242.222
  H     -131.984     167.262    -244.736
  H     -132.870     167.794    -243.327
  H     -131.455     168.674    -243.852

 6  7  8  9  10  11  12  13  14  15  16  26  30  31  32  33  35 0
 6-311+G(2d,p)
 ****
 37  38 0
 6-311+G(2d,p)
 ****
 1  2  3  4  5  17  18  19  20  21  22  23  24  25 0
 3-21G
 ****
 27  28  29  34  36  39  40  41  42  43  44  45  46 0
 3-21G
 ****


