%nproc=1
%NoSave
%Mem=1900MB
#P OB98/GEN NMR

erre ene a

0 1
  C      -75.713      14.169      16.876
  O      -76.638      13.634      17.800
  H      -75.547      15.223      17.114
  H      -76.107      14.097      15.860
  H      -74.761      13.637      16.945
  P      -77.067      12.103      17.592
  C      -76.677      11.662      20.121
  O      -76.394      11.271      18.784
  C      -77.421      10.539      20.836
  O      -78.629      10.210      20.111
  C      -76.638       9.237      20.932
  O      -75.666       9.269      21.960
  C      -77.759       8.249      21.210
  O      -78.089       8.207      22.608
  C      -78.927       8.826      20.380
  N      -79.159       8.067      19.156
  C      -79.526       6.736      19.334
  O      -79.649       6.211      20.441
  N      -79.708       6.009      18.189
  C      -79.528       6.464      16.916
  O      -79.638       5.741      15.933
  C      -79.157       7.884      16.790
  C      -78.982       8.606      17.899
  O      -76.229      11.665      16.300
  O      -78.531      11.876      17.417
  H      -76.810      11.650      15.517
  H      -78.915       7.690      22.676
  H      -79.962       5.040      18.296
  H      -79.010       8.279      15.792
  H      -78.687       9.648      17.832
  H      -79.853       8.812      20.968
  H      -77.480       7.235      20.921
  H      -76.187       8.995      19.963
  H      -77.708      10.893      21.836
  H      -77.305      12.558      20.114
  H      -75.737      11.894      20.631
  P      -74.364       8.346      21.811
  C      -72.595       9.997      20.789
  O      -73.518       8.943      20.586
  O      -75.002       7.002      21.227
  O      -73.598       8.181      23.080
  H      -75.745       7.167      20.620
  H      -72.135      10.252      19.857
  H      -71.844       9.684      21.484
  H      -73.109      10.851      21.179

 6  7  8  9  10  11  12  13  14  15  16  27  31  32  33  34  35 0
 6-311+G(2d,p)
 ****
 36  37 0
 6-311+G(2d,p)
 ****
 1  2  3  4  5  17  18  19  20  21  22  23  24  25 0
 3-21G
 ****
 26  28  29  30  38  39  40  41  42  43  44  45 0
 3-21G
 ****


