%nproc=1
%NoSave
%Mem=1900MB
#P OB98/GEN NMR

erre ene a

0 1
  C      272.201     -90.521    -109.783
  O      272.111     -89.499    -110.761
  P      273.453     -89.103    -111.550
  C      272.526     -86.754    -112.177
  O      273.540     -87.500    -111.519
  C      272.902     -85.273    -112.223
  O      272.884     -84.704    -110.901
  C      274.302     -85.003    -112.758
  O      274.352     -85.024    -114.177
  C      274.548     -83.598    -112.237
  O      273.892     -82.634    -113.086
  C      273.873     -83.641    -110.859
  N      278.186     -82.101    -108.706
  C      277.416     -81.491    -109.678
  N      277.897     -80.337    -110.185
  N      276.277     -81.967    -110.109
  C      275.927     -83.133    -109.513
  C      276.603     -83.833    -108.537
  C      277.868     -83.301    -108.077
  O      278.622     -83.823    -107.261
  N      275.931     -84.968    -108.177
  C      274.843     -84.963    -108.925
  N      274.819     -83.891    -109.786
  O      273.094     -89.420    -113.075
  O      274.678     -89.825    -111.098
  H      274.061     -81.754    -112.692
  H      273.909     -89.476    -113.606
  H      279.058     -81.700    -108.411
  H      274.066     -85.711    -108.894
  H      273.346     -82.710    -110.634
  H      275.609     -83.329    -112.216
  H      278.799     -79.951    -109.941
  H      275.036     -85.688    -112.317
  H      277.385     -79.901    -110.945
  H      272.152     -84.748    -112.829
  H      271.582     -86.876    -111.639
  H      272.395     -87.143    -113.194
  P      275.756     -85.421    -114.840
  C      275.629     -83.364    -116.427
  O      276.354     -84.052    -115.426
  O      275.321     -86.237    -116.146
  O      276.662     -86.211    -113.958
  H      276.018     -86.868    -116.409
  H      276.025     -82.347    -116.513
  H      274.568     -83.305    -116.172
  H      275.748     -83.875    -117.388
  H      271.239     -90.678    -109.342
  H      272.897     -90.229    -109.025
  H      272.535     -91.427    -110.244

 3  4  5  6  7  8  9  10  11  12  23  26  30  31 0
 6-311+G(2d,p)
 ****
 33  35  36  37  38 0
 6-311+G(2d,p)
 ****
 1  2  13  14  15  16  17  18  19  20  21  22  24  25 0
 3-21G
 ****
 27  28  29  32  34  39  40  41  42  43  44  45  46  47  48  49 0
 3-21G
 ****


