%nproc=1
%NoSave
%Mem=1900MB
#P OB98/GEN NMR

erre ene a

0 1
  C      250.553      35.560     247.851
  O      249.244      35.793     247.372
  H      251.205      35.352     246.998
  H      250.561      34.692     248.515
  H      250.938      36.437     248.378
  P      248.126      36.303     248.400
  C      247.955      38.836     247.930
  O      248.490      37.821     248.765
  C      247.787      40.148     248.706
  O      249.089      40.548     249.230
  C      247.261      41.324     247.857
  O      246.514      42.177     248.737
  C      248.565      41.973     247.430
  O      248.377      43.241     246.857
  C      249.332      41.892     248.758
  N      250.762      42.157     248.671
  C      251.425      42.511     249.844
  O      250.891      42.615     250.947
  N      252.768      42.759     249.713
  C      253.494      42.673     248.562
  O      254.702      42.875     248.514
  C      252.737      42.301     247.357
  C      251.429      42.059     247.467
  O      247.868      35.416     249.571
  O      246.820      36.464     247.485
  H      246.227      35.700     247.624
  H      249.183      43.490     246.357
  H      253.266      43.014     250.553
  H      253.281      42.234     246.424
  H      250.845      41.771     246.597
  H      248.884      42.574     249.489
  H      249.050      41.366     246.661
  H      246.621      41.003     247.029
  H      247.138      39.966     249.572
  H      246.980      38.499     247.561
  H      248.624      38.988     247.075
  P      244.923      42.366     248.647
  C      244.333      40.627     250.473
  O      244.231      40.989     249.098
  O      244.447      42.871     247.322
  O      244.551      43.388     249.821
  H      243.731      43.865     249.591
  H      243.832      39.695     250.635
  H      243.879      41.385     251.076
  H      245.364      40.529     250.740

 6  7  8  9  10  11  12  13  14  15  16  27  31  32  33  34  35 0
 6-311+G(2d,p)
 ****
 36  37 0
 6-311+G(2d,p)
 ****
 1  2  3  4  5  17  18  19  20  21  22  23  24  25 0
 3-21G
 ****
 26  28  29  30  38  39  40  41  42  43  44  45 0
 3-21G
 ****


