%nproc=1
%NoSave
%Mem=1900MB
#P OB98/GEN NMR

erre ene a

0 1
  C      550.767    -337.007    -725.073
  O      551.662    -337.874    -724.358
  P      553.224    -337.523    -724.380
  C      553.330    -339.633    -722.867
  O      554.021    -338.754    -723.738
  C      554.278    -340.193    -721.800
  O      555.202    -341.154    -722.351
  C      555.145    -339.121    -721.140
  O      554.453    -338.453    -720.101
  C      556.263    -339.966    -720.562
  O      555.829    -340.573    -719.324
  C      556.464    -341.037    -721.640
  N      560.804    -342.657    -723.678
  C      559.976    -343.263    -722.747
  N      560.353    -344.479    -722.301
  N      558.862    -342.717    -722.298
  C      558.609    -341.508    -722.849
  C      559.351    -340.802    -723.770
  C      560.575    -341.412    -724.250
  O      561.354    -340.919    -725.058
  N      558.761    -339.613    -724.082
  C      557.657    -339.587    -723.354
  N      557.526    -340.712    -722.580
  O      553.354    -336.389    -723.255
  O      553.733    -337.047    -725.704
  H      555.476    -339.850    -718.769
  H      554.108    -335.804    -723.460
  H      561.644    -343.123    -723.985
  H      556.929    -338.792    -723.367
  H      556.699    -342.023    -721.217
  H      557.165    -339.377    -720.325
  H      561.168    -344.978    -722.642
  H      555.548    -338.416    -721.890
  H      559.743    -344.946    -721.648
  H      553.675    -340.689    -721.028
  H      552.890    -340.465    -723.433
  H      552.487    -339.105    -722.413
  P      554.088    -336.898    -720.314
  C      552.800    -337.168    -718.075
  O      553.628    -336.355    -718.879
  O      552.734    -336.973    -721.160
  O      555.144    -336.106    -721.010
  H      552.678    -336.189    -721.755
  H      552.723    -336.714    -717.081
  H      553.227    -338.174    -717.963
  H      551.799    -337.245    -718.514
  H      549.764    -337.365    -724.968
  H      551.035    -336.994    -726.109
  H      550.835    -336.016    -724.674

 3  4  5  6  7  8  9  10  11  12  23  26  30  31 0
 6-311+G(2d,p)
 ****
 33  35  36  37  38 0
 6-311+G(2d,p)
 ****
 1  2  13  14  15  16  17  18  19  20  21  22  24  25 0
 3-21G
 ****
 27  28  29  32  34  39  40  41  42  43  44  45  46  47  48  49 0
 3-21G
 ****


