%nproc=1
%NoSave
%Mem=1900MB
#P OB98/GEN NMR

erre ene a

0 1
  C      122.286     870.988    1021.285
  O      120.923     870.625    1021.268
  H      122.375     872.028    1020.950
  H      122.859     870.356    1020.596
  H      122.702     870.911    1022.295
  P      120.524     869.138    1021.717
  C      118.093     870.032    1021.914
  O      118.948     869.031    1021.377
  C      116.979     869.388    1022.729
  O      117.500     868.372    1023.622
  C      116.227     870.347    1023.649
  O      115.341     871.216    1022.959
  C      115.481     869.344    1024.516
  O      114.383     868.787    1023.787
  C      116.597     868.286    1024.755
  N      117.330     868.507    1025.999
  C      117.166     867.541    1027.006
  O      116.445     866.553    1026.821
  N      117.825     867.698    1028.199
  C      118.546     868.764    1028.402
  N      119.163     868.892    1029.613
  C      118.719     869.828    1027.387
  C      118.087     869.630    1026.228
  O      120.909     868.745    1023.107
  O      121.158     868.198    1020.589
  H      113.719     869.503    1023.681
  H      120.951     867.259    1020.820
  H      119.304     870.706    1027.609
  H      118.165     870.368    1025.439
  H      116.175     867.276    1024.766
  H      115.083     869.790    1025.439
  H      116.921     870.914    1024.277
  H      116.302     868.887    1022.026
  H      119.021     868.148    1030.284
  H      117.686     870.614    1021.084
  H      119.681     869.710    1029.873
  H      118.670     870.699    1022.571
  P      115.427     872.779    1023.328
  C      113.885     873.140    1021.251
  O      114.195     873.488    1022.590
  O      116.705     873.277    1022.511
  O      115.527     873.084    1024.794
  H      117.499     873.313    1023.087
  H      113.040     873.707    1020.922
  H      113.657     872.096    1021.198
  H      114.725     873.354    1020.623

 6  7  8  9  10  11  12  13  14  15  16  26  30  31  32  33  35 0
 6-311+G(2d,p)
 ****
 37  38 0
 6-311+G(2d,p)
 ****
 1  2  3  4  5  17  18  19  20  21  22  23  24  25 0
 3-21G
 ****
 27  28  29  34  36  39  40  41  42  43  44  45  46 0
 3-21G
 ****


