%nproc=1
%NoSave
%Mem=1900MB
#P OB98/GEN NMR

erre ene a

0 1
  C      157.303     330.955    -265.291
  O      157.511     331.934    -264.296
  H      156.481     330.306    -264.978
  H      158.200     330.344    -265.422
  H      157.033     331.427    -266.241
  P      158.712     332.978    -264.480
  C      156.982     334.775    -265.138
  O      158.190     334.111    -265.490
  C      156.755     335.981    -266.057
  O      156.724     335.494    -267.421
  C      155.428     336.699    -265.771
  O      155.585     338.099    -265.553
  C      154.536     336.258    -266.926
  O      153.498     337.163    -267.247
  C      155.536     336.002    -268.057
  N      155.054     335.068    -269.073
  C      154.571     335.607    -270.261
  O      154.541     336.806    -270.533
  N      154.111     334.699    -271.180
  C      154.081     333.344    -271.025
  O      153.663     332.580    -271.887
  C      154.582     332.837    -269.740
  C      155.038     333.707    -268.836
  O      160.034     332.384    -264.835
  O      158.774     333.748    -263.077
  H      152.823     337.102    -266.542
  H      159.518     333.404    -262.549
  H      153.769     335.078    -272.049
  H      154.562     331.768    -269.579
  H      155.418     333.366    -267.876
  H      155.790     336.934    -268.560
  H      154.058     335.310    -266.647
  H      154.990     336.346    -264.830
  H      157.610     336.659    -265.968
  H      157.067     335.102    -264.097
  H      156.140     334.080    -265.226
  P      155.759     338.782    -264.120
  C      158.334     339.181    -264.408
  O      157.279     338.593    -263.660
  O      154.703     338.456    -263.118
  O      155.652     340.358    -264.449
  H      155.235     340.775    -263.666
  H      159.271     338.946    -263.948
  H      158.205     340.243    -264.432
  H      158.320     338.797    -265.407

 6  7  8  9  10  11  12  13  14  15  16  26  31  32  33  34  35 0
 6-311+G(2d,p)
 ****
 36  37 0
 6-311+G(2d,p)
 ****
 1  2  3  4  5  17  18  19  20  21  22  23  24  25 0
 3-21G
 ****
 27  28  29  30  38  39  40  41  42  43  44  45 0
 3-21G
 ****


