%nproc=1
%NoSave
%Mem=1900MB
#P OB98/GEN NMR

erre ene a

0 1
  C        8.299     547.200     472.956
  O        9.436     546.601     473.599
  P        9.619     545.009     473.389
  C       12.199     545.308     473.627
  O       11.024     544.605     474.028
  C       13.410     544.835     474.416
  O       13.310     545.225     475.801
  C       13.587     543.314     474.451
  O       14.185     542.839     473.251
  C       14.526     543.155     475.626
  O       15.896     543.391     475.191
  C       14.076     544.286     476.593
  N       14.028     542.064     481.133
  C       15.089     542.395     480.336
  N       16.340     542.134     480.846
  N       14.976     542.962     479.162
  C       13.680     543.189     478.802
  C       12.536     542.890     479.527
  C       12.689     542.261     480.806
  O       11.783     541.905     481.549
  N       11.413     543.295     478.849
  C       11.859     543.844     477.740
  N       13.245     543.799     477.659
  O        9.892     544.882     471.807
  O        8.433     544.201     473.821
  H       16.460     543.411     475.998
  H        9.608     544.013     471.480
  H       14.186     541.639     482.045
  H       11.256     544.294     476.975
  H       14.937     544.810     477.009
  H       14.509     542.158     476.063
  H       16.502     541.780     481.755
  H       12.640     542.826     474.668
  H       17.124     542.420     480.264
  H       14.303     545.308     473.981
  H       12.055     546.377     473.773
  H       12.332     545.153     472.547
  P       13.207     542.626     471.979
  C       15.130     542.596     470.209
  O       14.112     541.883     470.893
  O       13.068     544.110     471.406
  O       11.899     542.017     472.294
  H       12.223     544.218     470.947
  H       15.687     543.239     470.919
  H       14.671     543.213     469.431
  H       15.827     541.887     469.755
  H        8.283     548.249     473.165
  H        7.402     546.749     473.325
  H        8.366     547.048     471.899

 3  4  5  6  7  8  9  10  11  12  23  26  30  31  33  0
 6-311+G(2d,p)
 ****
 35  36  37  38 0
 6-311+G(2d,p)
 ****
 1  2  13  14  15  16  17  18  19  20  21  22  24  25  27  28  29 0
 3-21G
 ****
 32  34  39  40  41  42  43  44  45  46  47  48  49 0
 3-21G
 ****


