%nproc=1
%NoSave
%Mem=1900MB
#P OB98/GEN NMR

erre ene a

0 1
  C     -610.364     -73.293      50.880
  O     -611.149     -73.265      49.698
  H     -609.352     -72.963      50.634
  H     -610.321     -74.313      51.278
  H     -610.787     -72.618      51.629
  P     -612.688     -73.697      49.844
  C     -612.343     -75.960      48.607
  O     -612.714     -75.301      49.813
  C     -613.461     -76.899      48.172
  O     -613.759     -77.831      49.234
  C     -614.774     -76.198      47.858
  O     -614.773     -75.585      46.587
  C     -615.758     -77.350      47.979
  O     -615.818     -78.119      46.768
  C     -615.155     -78.191      49.110
  N     -618.598     -80.138      52.345
  C     -618.050     -80.623      51.212
  N     -617.130     -80.041      50.408
  C     -616.749     -78.853      50.906
  C     -617.212     -78.236      52.058
  C     -618.182     -78.927      52.797
  N     -618.753     -78.426      53.945
  N     -616.610     -77.003      52.216
  C     -615.793     -76.880      51.191
  N     -615.843     -77.977      50.371
  O     -613.315     -73.277      48.433
  O     -613.412     -73.071      50.989
  H     -616.281     -78.953      46.994
  H     -613.785     -72.426      48.528
  H     -618.416     -81.594      50.891
  H     -615.161     -76.025      50.987
  H     -615.195     -79.265      48.898
  H     -616.764     -76.986      48.192
  H     -614.999     -75.460      48.645
  H     -613.115     -77.480      47.297
  H     -611.428     -76.533      48.775
  H     -612.152     -75.207      47.833
  H     -619.491     -78.947      54.386
  H     -618.531     -77.477      54.226
  P     -615.680     -74.273      46.384
  C     -617.944     -75.347      45.645
  O     -617.205     -74.695      46.673
  O     -615.648     -74.025      44.805
  O     -615.212     -73.079      47.149
  H     -615.654     -73.057      44.623
  H     -618.933     -75.558      45.996
  H     -617.456     -76.262      45.381
  H     -617.998     -74.711      44.786

 6  7  8  9  10  11  12  13  14  15  25  28  32  33  34  35 0
 6-311+G(2d,p)
 ****
 36  37  40 0
 6-311+G(2d,p)
 ****
 1  2  3  4  5  16  17  18  19  20  21  22  23  24 0
 3-21G
 ****
 26  27  29  30  31  38  39 41  42  43  44  45  46  47  48 0
 3-21G
 ****


