%nproc=1
%NoSave
%Mem=1900MB
#P OB98/GEN NMR

erre ene a

0 1
  C     1137.189    -890.130     705.238
  O     1137.526    -891.120     704.270
  P     1138.457    -892.330     704.641
  C     1137.723    -893.450     702.384
  O     1138.751    -893.190     703.315
  C     1138.306    -894.270     701.242
  O     1138.981    -895.480     701.778
  C     1137.226    -894.800     700.309
  O     1137.056    -893.920     699.162
  C     1137.723    -896.190     699.901
  O     1138.664    -896.100     698.855
  C     1138.373    -896.660     701.248
  N     1137.498    -897.250     702.262
  C     1137.195    -898.620     702.195
  O     1137.640    -899.380     701.393
  N     1136.331    -899.050     703.185
  C     1135.788    -898.280     704.219
  O     1134.852    -898.630     704.918
  C     1136.372    -896.960     704.349
  C     1137.161    -896.470     703.381
  O     1137.515    -893.320     705.502
  O     1139.730    -891.970     705.391
  H     1138.205    -895.730     698.096
  H     1137.671    -893.180     706.448
  H     1135.990    -900.000     703.089
  H     1136.087    -896.350     705.232
  H     1137.557    -895.480     703.466
  H     1139.173    -897.400     701.030
  H     1136.907    -896.800     699.520
  H     1136.258    -894.900     700.829
  H     1139.019    -893.710     700.690
  H     1137.312    -892.530     701.992
  H     1136.890    -893.990     702.852
  P     1135.626    -893.600     698.619
  C     1136.892    -891.880     697.182
  O     1135.861    -892.890     697.224
  O     1134.663    -892.910     699.544
  O     1135.067    -895.070     698.214
  H     1134.528    -895.440     698.897
  H     1137.106    -891.600     696.188
  H     1137.833    -892.300     697.662
  H     1136.552    -891.010     697.741
  H     1136.551    -889.397     704.791
  H     1138.082    -889.658     705.591
  H     1136.681    -890.592     706.059

 3  4  5  6  7  8  9  10  11  12  13  23  28  29  30  31  32 0
 6-311+G(2d,p)
 ****
 33  34 0
 6-311+G(2d,p)
 ****
 1  2  14  15  16  17  18  19  20  21  22  24  25  26  27 0
 3-21G
 ****
 35  36  37  38  39  40  41  42  43  44  45 0
 3-21G
 ****


