%nproc=1
%NoSave
%Mem=1900MB
#P OB98/GEN NMR

erre ene a

0 1
  C      268.943     -24.288      72.883
  O      270.358     -24.267      72.867
  H      268.583     -23.379      73.372
  H      268.592     -25.156      73.449
  H      268.549     -24.323      71.864
  P      271.077     -25.397      71.989
  C      271.567     -26.757      74.177
  O      272.067     -26.204      72.967
  C      272.718     -27.035      75.140
  O      273.530     -28.126      74.667
  C      273.703     -25.887      75.282
  O      273.180     -24.808      76.024
  C      274.862     -26.594      75.974
  O      274.674     -26.655      77.393
  C      274.801     -28.009      75.350
  N      275.928     -28.260      74.472
  C      277.112     -28.649      75.113
  O      277.139     -28.776      76.338
  N      278.236     -28.844      74.354
  C      278.192     -28.644      73.074
  N      279.351     -28.824      72.383
  C      276.966     -28.232      72.359
  C      275.881     -28.058      73.115
  O      272.078     -24.543      71.080
  O      270.149     -26.275      71.219
  H      273.806     -27.088      77.536
  H      272.611     -23.904      71.579
  H      276.979     -28.090      71.289
  H      274.937     -27.757      72.673
  H      274.803     -28.776      76.138
  H      275.810     -26.079      75.801
  H      274.048     -25.560      74.291
  H      272.290     -27.315      76.112
  H      280.180     -29.052      72.919
  H      271.009     -27.678      73.978
  H      279.455     -28.621      71.400
  H      270.871     -26.033      74.611
  P      273.172     -23.320      75.436
  C      275.125     -22.673      76.988
  O      273.797     -22.369      76.572
  O      271.863     -22.851      74.896
  O      274.348     -23.352      74.349
  H      275.226     -23.577      74.702
  H      275.431     -21.978      77.742
  H      275.786     -22.604      76.149
  H      275.156     -23.666      77.385

 6  7  8  9  10  11  12  13  14  15  16  26  30  31  32  33  35 0
 6-311+G(2d,p)
 ****
 37  38 0
 6-311+G(2d,p)
 ****
 1  2  3  4  5  17  18  19  20  21  22  23  24  25 0
 3-21G
 ****
 27  28  29  34  36  39  40  41  42  43  44  45  46 0
 3-21G
 ****


