%nproc=1
%NoSave
%Mem=1900MB
#P OB98/GEN NMR

erre ene a

0 1
  C     -285.641    -400.069    -892.870
  O     -286.538    -399.884    -891.790
  P     -287.934    -399.164    -892.130
  C     -288.626    -396.748    -892.870
  O     -287.557    -397.705    -892.670
  C     -288.086    -395.326    -892.730
  O     -287.047    -395.077    -893.670
  C     -289.130    -394.252    -893.010
  O     -290.024    -394.086    -891.900
  C     -288.251    -393.053    -893.280
  O     -287.914    -392.381    -892.030
  C     -287.000    -393.674    -893.930
  N     -286.910    -393.383    -895.360
  C     -285.988    -392.395    -895.700
  O     -285.336    -391.786    -894.820
  N     -285.862    -392.055    -897.050
  C     -286.578    -392.678    -897.920
  N     -286.403    -392.294    -899.230
  C     -287.584    -393.697    -897.580
  C     -287.688    -394.028    -896.290
  O     -288.562    -398.873    -890.680
  O     -288.872    -399.959    -892.990
  H     -287.340    -391.624    -892.300
  H     -289.533    -398.835    -890.700
  H     -288.147    -394.181    -898.380
  H     -288.406    -394.761    -895.940
  H     -286.095    -393.309    -893.440
  H     -288.761    -392.319    -893.910
  H     -289.723    -394.506    -893.910
  H     -287.680    -395.190    -891.710
  H     -285.723    -391.577    -899.410
  H     -289.396    -396.920    -892.120
  H     -286.899    -392.728    -900.000
  H     -289.063    -396.910    -893.880
  P     -291.533    -393.696    -892.210
  C     -292.761    -391.514    -892.760
  O     -291.471    -392.134    -892.540
  O     -292.166    -393.746    -890.730
  O     -292.292    -394.576    -893.160
  H     -293.155    -393.590    -890.790
  H     -292.586    -390.421    -892.790
  H     -293.437    -391.749    -891.930
  H     -293.177    -391.868    -893.690
  H     -284.755    -400.555    -892.518
  H     -285.384    -399.118    -893.287
  H     -286.106    -400.674    -893.620

 3  4  5  6  7  8  9  10  11  12  13  21  23  27  28  29  30  32 0
 6-311+G(2d,p)
 ****
 34  35 0
 6-311+G(2d,p)
 ****
 1  2  14  15  16  17  18  19  20  22  24  25  26 0
 3-21G
 ****
 31  33  36  37  38  39  40  41  42  43  44  45  46 0
 3-21G
 ****


