%nproc=1
%NoSave
%Mem=1900MB
#P OB98/GEN NMR

erre ene a

0 1
  C      184.573     416.687     -60.893
  O      184.137     415.760     -61.896
  P      185.204     414.637     -62.336
  C      184.222     412.918     -60.657
  O      185.376     413.611     -61.111
  C      184.539     412.000     -59.471
  O      185.578     411.069     -59.853
  C      185.028     412.724     -58.212
  O      184.496     412.051     -57.060
  C      186.525     412.486     -58.226
  O      187.103     412.608     -56.931
  C      186.573     411.080     -58.817
  N      190.522     407.949     -58.379
  C      189.302     407.928     -57.732
  N      189.121     406.946     -56.821
  N      188.346     408.792     -57.956
  C      188.657     409.696     -58.915
  C      189.824     409.816     -59.634
  C      190.889     408.881     -59.345
  O      192.007     408.879     -59.847
  N      189.761     410.865     -60.519
  C      188.564     411.383     -60.329
  N      187.860     410.713     -59.359
  O      186.586     415.443     -62.366
  O      184.908     414.012     -63.657
  H      186.591     412.036     -56.331
  H      187.000     415.360     -63.247
  H      191.230     407.275     -58.155
  H      188.169     412.248     -60.842
  H      186.292     410.324     -58.071
  H      187.002     413.217     -58.886
  H      189.789     406.213     -56.648
  H      184.768     413.789     -58.171
  H      188.217     406.886     -56.371
  H      183.642     411.412     -59.245
  H      183.815     412.316     -61.474
  H      183.463     413.653     -60.372
  P      183.829     412.979     -55.933
  C      181.449     412.695     -56.941
  O      182.498     413.577     -56.594
  O      184.813     414.237     -55.860
  O      183.662     412.311     -54.611
  H      184.776     414.644     -54.976
  H      181.594     411.693     -56.528
  H      181.388     412.623     -58.031
  H      180.505     413.098     -56.560
  H      183.786     417.381     -60.683
  H      185.432     417.218     -61.247
  H      184.826     416.154     -60.000

 3  4  5  6  7  8  9  10  11  12  23  26  30  31  33  0
 6-311+G(2d,p)
 ****
 35  36  37  38 0
 6-311+G(2d,p)
 ****
 1  2  13  14  15  16  17  18  19  20  21  22  24  25  27  28  29 0
 3-21G
 ****
 32  34  39  40  41  42  43  44  45  46  47  48  49 0
 3-21G
 ****


