%nproc=1
%NoSave
%Mem=1900MB
#P OB98/GEN NMR

erre ene a

0 1
  C        8.706     114.729     100.050
  O        8.762     116.097      99.680
  P       10.035     117.004     100.050
  C        8.652     118.242     101.845
  O        9.799     117.450     101.572
  C        8.091     117.886     103.222
  O        7.934     116.456     103.323
  C        8.984     118.288     104.388
  O        8.899     119.681     104.641
  C        8.441     117.385     105.492
  O        7.233     117.935     106.039
  C        8.120     116.091     104.714
  N        9.154     115.070     104.855
  C        9.042     114.219     105.958
  O        8.111     114.333     106.755
  N        9.976     113.229     106.121
  C       10.952     113.108     105.269
  N       11.809     112.064     105.443
  C       11.137     114.016     104.126
  C       10.209     114.961     103.976
  O       10.303     118.127      99.106
  O       11.242     115.966     100.177
  H        7.483     118.753     106.510
  H       11.710     115.793      99.324
  H       11.971     113.885     103.454
  H       10.262     115.656     103.147
  H        7.163     115.674     105.049
  H        9.143     117.231     106.317
  H       10.026     118.024     104.179
  H        7.097     118.349     103.322
  H       11.543     111.369     106.133
  H        7.890     118.032     101.084
  H       12.399     111.734     104.693
  H        8.920     119.303     101.792
  P       10.235     120.550     104.471
  C        9.930     121.388     106.907
  O       10.795     120.792     105.953
  O        9.686     121.982     104.012
  O       11.218     119.983     103.498
  H        9.793     122.091     103.047
  H       10.366     121.264     107.900
  H        8.946     120.902     106.890
  H        9.824     122.453     106.699
  H        7.783     114.306      99.713
  H        8.770     114.645     101.115
  H        9.523     114.204      99.601

 3  4  5  6  7  8  9  10  11  12  13  23  27  28  29  30  32 0
 6-311+G(2d,p)
 ****
 34  35 0
 6-311+G(2d,p)
 ****
 1  2  14  15  16  17  18  19  20  21  22  24  25  26 0
 3-21G
 ****
 31  33  36  37  38  39  40  41  42  43  44  45  46 0
 3-21G
 ****


