%nproc=1
%NoSave
%Mem=1900MB
#P OB98/GEN NMR

erre ene a

0 1
  C      154.062    -253.385    -190.162
  O      154.835    -254.480    -190.676
  P      156.439    -254.520    -190.642
  C      158.430    -253.608    -192.002
  O      157.018    -253.767    -191.936
  C      158.835    -252.554    -193.042
  O      158.556    -253.045    -194.391
  C      158.113    -251.198    -192.895
  O      159.079    -250.187    -193.189
  C      157.044    -251.293    -193.975
  O      156.504    -250.038    -194.348
  C      157.851    -251.990    -195.077
  N      157.064    -252.528    -196.184
  C      156.814    -251.684    -197.272
  O      157.193    -250.513    -197.281
  N      156.115    -252.187    -198.345
  C      155.693    -253.410    -198.328
  N      155.014    -253.849    -199.424
  C      155.914    -254.323    -197.195
  C      156.602    -253.825    -196.171
  O      156.998    -255.895    -190.455
  O      156.861    -253.570    -189.423
  H      157.653    -253.945    -188.988
  H      157.241    -249.478    -194.660
  H      155.551    -255.343    -197.227
  H      156.832    -254.444    -195.310
  H      158.610    -251.297    -195.469
  H      156.226    -251.916    -193.608
  H      157.719    -251.026    -191.888
  H      159.919    -252.417    -192.981
  H      154.888    -253.192    -200.190
  H      158.875    -254.567    -192.281
  H      154.650    -254.786    -199.522
  H      158.804    -253.330    -191.011
  P      159.995    -249.594    -192.018
  C      159.571    -248.089    -189.933
  O      159.108    -248.550    -191.184
  O      160.979    -248.615    -192.826
  O      160.791    -250.585    -191.234
  H      161.808    -248.510    -192.329
  H      159.416    -247.008    -189.878
  H      160.631    -248.300    -189.778
  H      158.991    -248.572    -189.137
  H      153.020    -253.589    -190.298
  H      154.321    -252.489    -190.686
  H      154.268    -253.261    -189.119

 3  4  5  6  7  8  9  10  11  12  13  24  27  28  29  30  32 0
 6-311+G(2d,p)
 ****
 34  35 0
 6-311+G(2d,p)
 ****
 1  2  14  15  16  17  18  19  20  21  22  23  25  26 0
 3-21G
 ****
 31  33  36  37  38  39  40  41  42  43  44  45  46 0
 3-21G
 ****


