%nproc=1
%NoSave
%Mem=1900MB
#P OB98/GEN NMR

erre ene a

0 1
  C        3.249     671.446     419.881
  O        3.291     670.092     420.315
  P        2.136     669.490     421.268
  C        1.199     667.795     419.555
  O        0.984     669.015     420.259
  C        0.773     667.957     418.096
  O        1.743     668.773     417.391
  C        0.684     666.656     417.312
  O       -0.499     665.940     417.649
  C        0.754     667.175     415.879
  O       -0.525     667.672     415.467
  C        1.757     668.342     416.012
  N        3.110     667.977     415.583
  C        3.537     668.502     414.364
  O        2.807     669.234     413.691
  N        4.810     668.211     413.931
  C        5.578     667.439     414.645
  N        6.854     667.237     414.206
  C        5.144     666.823     415.918
  C        3.914     667.140     416.321
  O        1.675     670.409     422.348
  O        2.737     668.109     421.793
  H       -0.512     667.720     414.493
  H        3.265     668.197     422.627
  H        5.817     666.189     416.476
  H        3.521     666.743     417.255
  H        1.419     669.202     415.415
  H        1.069     666.409     415.158
  H        1.558     666.020     417.520
  H       -0.196     668.484     418.071
  H        7.160     667.821     413.438
  H        0.598     667.010     420.021
  H        7.578     666.915     414.835
  H        2.266     667.526     419.627
  P       -0.528     664.368     417.311
  C       -1.139     663.369     419.629
  O       -0.125     663.622     418.674
  O        0.742     664.172     416.353
  O       -1.802     663.897     416.674
  H        0.452     664.124     415.420
  H       -0.760     662.661     420.365
  H       -2.025     662.939     419.150
  H       -1.411     664.301     420.141
  H        4.098     671.649     419.262
  H        3.265     672.094     420.732
  H        2.352     671.614     419.322

 3  4  5  6  7  8  9  10  11  12  13  23  27  28  29  30  32 0
 6-311+G(2d,p)
 ****
 34  35 0
 6-311+G(2d,p)
 ****
 1  2  14  15  16  17  18  19  20  21  22  24  25  26 0
 3-21G
 ****
 31  33  36  37  38  39  40  41  42  43  44  45  46 0
 3-21G
 ****


