%nproc=1
%NoSave
%Mem=1900MB
#P OB98/GEN NMR

erre ene a

0 1
  C       97.522    -776.625     873.407
  O       98.630    -776.768     872.543
  H       97.774    -775.897     874.186
  H       97.304    -777.584     873.883
  H       96.642    -776.270     872.862
  P       98.365    -777.466     871.123
  C       99.443    -775.654     869.611
  O       98.248    -776.280     870.041
  C       99.441    -774.172     869.999
  O       99.331    -774.069     871.446
  C      100.696    -773.399     869.573
  O      100.325    -772.071     869.183
  C      101.489    -773.308     870.860
  O      102.416    -772.226     870.855
  C      100.365    -773.169     871.881
  N      102.707    -771.146     875.835
  C      102.206    -770.552     874.684
  N      102.418    -769.225     874.534
  N      101.558    -771.203     873.760
  C      101.409    -772.523     874.047
  C      101.854    -773.233     875.135
  C      102.585    -772.494     876.143
  O      103.071    -772.963     877.176
  N      101.553    -774.565     875.025
  C      100.937    -774.672     873.852
  N      100.829    -773.460     873.217
  O       96.862    -777.999     871.267
  O       99.312    -778.562     870.764
  H      102.751    -772.101     871.766
  H       96.871    -778.935     871.556
  H      103.209    -770.591     876.502
  H      100.567    -775.589     873.413
  H       99.955    -772.151     871.895
  H      102.051    -774.238     871.019
  H      102.879    -768.644     875.216
  H      101.252    -773.876     868.750
  H      102.023    -768.778     873.716
  H       98.532    -773.699     869.576
  H       99.522    -775.728     868.518
  H      100.303    -776.156     870.061
  P      100.245    -771.739     867.615
  C       98.111    -770.254     867.401
  O       98.704    -771.537     867.209
  O      100.624    -773.134     866.931
  O      101.172    -770.649     867.183
  H      101.116    -772.975     866.107
  H       97.089    -770.282     867.085
  H       98.642    -769.526     866.825
  H       98.157    -769.991     868.437

 6  7  8  9  10  11  12  13  14  15  26  29  33  34 0
 6-311+G(2d,p)
 ****
 36  38  39  40  41 0
 6-311+G(2d,p)
 ****
 1  2  3  4  5  16  17  18  19  20  21  22  23  24  25 0
 3-21G
 ****
 27  28  30  31  32  35  37  42  43  44  45  46  47 0
 3-21G
 ****
 48  49 0
 3-21G
 ****


