%nproc=1
%NoSave
%Mem=1900MB
#P OB98/GEN NMR

erre ene a

0 1
  C     -895.545     340.604    1043.813
  O     -895.745     339.333    1044.403
  H     -896.515     341.028    1043.567
  H     -894.965     340.503    1042.898
  H     -895.035     341.279    1044.516
  P     -894.485     338.566    1045.033
  C     -894.335     337.204    1042.844
  O     -894.375     337.165    1044.259
  C     -894.365     335.781    1042.256
  O     -893.105     335.130    1042.581
  C     -895.505     334.895    1042.814
  O     -895.865     333.963    1041.786
  C     -894.785     334.192    1043.968
  O     -895.495     333.110    1044.493
  C     -893.435     333.884    1043.263
  N     -892.345     333.477    1044.140
  C     -891.975     332.136    1044.125
  O     -892.505     331.266    1043.424
  N     -890.965     331.785    1044.972
  C     -890.275     332.638    1045.798
  O     -889.345     332.276    1046.526
  C     -890.715     334.048    1045.783
  C     -891.725     334.390    1044.948
  O     -894.455     338.486    1046.527
  O     -893.225     339.383    1044.464
  H     -892.875     339.984    1045.156
  H     -896.355     333.413    1044.823
  H     -890.685     330.829    1044.979
  H     -890.225     334.749    1046.426
  H     -892.055     335.430    1044.903
  H     -893.585     333.124    1042.483
  H     -894.625     334.893    1044.790
  H     -896.385     335.457    1043.126
  H     -894.425     335.844    1041.159
  H     -893.405     337.712    1042.527
  H     -895.195     337.778    1042.480
  P     -896.975     334.266    1040.671
  C     -899.125     334.218    1042.115
  O     -898.345     333.559    1041.134
  O     -896.555     333.930    1039.265
  O     -897.295     335.841    1040.813
  H     -897.615     336.185    1039.951
  H     -900.000     333.638    1042.324
  H     -899.415     335.182    1041.752
  H     -898.551     334.332    1043.010

 6  7  8  9  10  11  12  13  14  15  16  27  31  32  33  34  35 0
 6-311+G(2d,p)
 ****
 36  37 0
 6-311+G(2d,p)
 ****
 1  2  3  4  5  17  18  19  20  21  22  23  24  25 0
 3-21G
 ****
 26  28  29  30  38  39  40  41  42  43  44  45 0
 3-21G
 ****


