%nproc=1
%NoSave
%Mem=1900MB
#P OB98/GEN NMR

erre ene a

0 1
  C     -476.331      76.600     -19.998
  O     -475.579      77.794     -20.116
  P     -475.659      78.688     -21.450
  C     -473.792      80.210     -20.519
  O     -474.213      79.370     -21.582
  C     -472.291      80.464     -20.614
  O     -471.578      79.238     -20.345
  C     -471.816      80.923     -21.984
  O     -472.118      82.294     -22.198
  C     -470.328      80.590     -21.902
  O     -469.631      81.601     -21.164
  C     -470.344      79.270     -21.101
  N     -470.221      78.087     -21.949
  C     -468.959      77.478     -21.985
  O     -468.023      77.921     -21.316
  N     -468.796      76.351     -22.747
  C     -469.792      75.885     -23.436
  N     -469.591      74.722     -24.122
  C     -471.118      76.528     -23.473
  C     -471.260      77.610     -22.712
  O     -476.811      79.639     -21.503
  O     -475.649      77.626     -22.648
  H     -469.728      82.434     -21.655
  H     -476.550      77.308     -22.899
  H     -471.914      76.110     -24.076
  H     -472.210      78.130     -22.666
  H     -469.534      79.264     -20.362
  H     -469.845      80.501     -22.883
  H     -472.280      80.323     -22.772
  H     -472.013      81.197     -19.843
  H     -468.732      74.225     -23.926
  H     -474.012      79.712     -19.569
  H     -470.369      74.155     -24.435
  H     -474.352      81.154     -20.555
  P     -472.642      82.715     -23.655
  C     -472.471      85.274     -23.256
  O     -471.981      84.147     -23.961
  O     -474.196      83.039     -23.406
  O     -472.449      81.676     -24.709
  H     -474.747      82.293     -23.705
  H     -471.769      86.100     -23.399
  H     -472.552      85.057     -22.188
  H     -473.446      85.570     -23.652
  H     -476.143      76.153     -19.044
  H     -476.045      75.920     -20.773
  H     -477.373      76.825     -20.087

 3  4  5  6  7  8  9  10  11  12  13  23  27  28  29  30  32 0
 6-311+G(2d,p)
 ****
 34  35 0
 6-311+G(2d,p)
 ****
 1  2  14  15  16  17  18  19  20  21  22  24  25  26 0
 3-21G
 ****
 31  33  36  37  38  39  40  41  42  43  44  45  46 0
 3-21G
 ****


