%nproc=1
%NoSave
%Mem=1900MB
#P OB98/GEN NMR

erre ene a

0 1
  C     -992.630    -566.318    -898.240
  O     -993.908    -566.740    -897.790
  P     -994.008    -567.341    -896.300
  C     -993.041    -569.440    -895.100
  O     -993.289    -568.775    -896.340
  C     -993.274    -570.934    -895.260
  O     -992.569    -571.442    -896.430
  C     -992.763    -571.777    -894.110
  O     -993.628    -571.686    -892.980
  C     -992.702    -573.166    -894.750
  O     -994.012    -573.730    -894.810
  C     -992.215    -572.813    -896.170
  N     -988.537    -574.871    -899.080
  C     -989.869    -574.924    -899.180
  N     -990.797    -574.377    -898.340
  C     -990.179    -573.708    -897.360
  C     -988.826    -573.570    -897.130
  C     -987.993    -574.204    -898.040
  N     -986.589    -574.153    -897.940
  N     -988.575    -572.846    -895.970
  C     -989.767    -572.495    -895.530
  N     -990.766    -572.976    -896.330
  O     -995.569    -567.691    -896.160
  O     -993.524    -566.417    -895.220
  H     -994.526    -573.217    -895.480
  H     -995.855    -567.554    -895.230
  H     -990.286    -575.484    -900.000
  H     -989.967    -571.909    -894.650
  H     -992.707    -573.430    -896.950
  H     -992.042    -573.860    -894.220
  H     -991.745    -571.473    -893.800
  H     -994.348    -571.117    -895.400
  H     -993.718    -569.053    -894.340
  H     -986.080    -574.751    -898.580
  H     -986.204    -573.782    -897.090
  H     -992.018    -569.227    -894.780
  P     -993.056    -572.186    -891.560
  C     -992.048    -574.492    -890.990
  O     -993.063    -573.801    -891.700
  O     -994.321    -571.925    -890.590
  O     -991.775    -571.577    -891.150
  H     -995.141    -572.279    -890.980
  H     -992.200    -575.575    -891.120
  H     -992.129    -574.240    -889.920
  H     -991.053    -574.222    -891.360
  H     -992.709    -565.943    -899.239
  H     -991.954    -567.147    -898.223
  H     -992.263    -565.545    -897.597

 3  4  5  6  7  8  9  10  11  12  22  25  29  30  31  32 0
 6-311+G(2d,p)
 ****
 33  36  37 0
 6-311+G(2d,p)
 ****
 1  2  13  14  15  16  17  18  19  20  21  23  24  26 0
 3-21G
 ****
 27  28  34  35  38  39  40  41  42  43  44  45  46  47  48 0
 3-21G
 ****


