%nproc=1
%NoSave
%Mem=1900MB
#P OB98/GEN NMR

erre ene a

0 1
  C     -109.621    -432.451      90.283
  O     -110.543    -432.524      89.194
  P     -110.618    -433.893      88.370
  C     -109.430    -433.150      86.176
  O     -109.375    -433.945      87.337
  C     -108.046    -432.951      85.542
  O     -107.447    -434.236      85.210
  C     -108.053    -432.128      84.247
  O     -106.814    -431.440      84.141
  C     -108.107    -433.208      83.179
  O     -107.703    -432.707      81.900
  C     -107.179    -434.258      83.799
  N     -105.380    -437.725      80.597
  C     -104.929    -436.453      80.882
  N     -103.810    -436.041      80.233
  N     -105.517    -435.633      81.718
  C     -106.610    -436.194      82.309
  C     -107.160    -437.424      82.116
  C     -106.520    -438.307      81.169
  O     -106.881    -439.427      80.863
  N     -108.289    -437.618      82.877
  C     -108.402    -436.480      83.553
  N     -107.417    -435.599      83.261
  O     -111.894    -433.660      87.398
  O     -110.814    -435.109      89.213
  H     -106.824    -432.289      82.022
  H     -112.637    -434.196      87.691
  H     -104.900    -438.293      79.929
  H     -109.213    -436.238      84.240
  H     -106.126    -434.015      83.650
  H     -109.132    -433.595      83.079
  H     -103.271    -436.640      79.610
  H     -108.875    -431.414      84.162
  H     -103.441    -435.121      80.453
  H     -107.389    -432.477      86.294
  H     -109.859    -432.148      86.419
  H     -110.135    -433.592      85.462
  P     -106.736    -429.991      84.810
  C     -107.904    -428.341      83.174
  O     -108.024    -429.186      84.319
  O     -105.518    -429.272      84.003
  O     -106.492    -429.996      86.275
  H     -105.115    -428.577      84.555
  H     -108.363    -428.839      82.306
  H     -106.866    -428.098      82.965
  H     -108.466    -427.409      83.385
  H     -109.681    -431.484      90.737
  H     -108.628    -432.614      89.921
  H     -109.864    -433.200      91.007

 3  4  5  6  7  8  9  10  11  12  23  26  30  31 0
 6-311+G(2d,p)
 ****
 33  35  36  37  38 0
 6-311+G(2d,p)
 ****
 1  2  13  14  15  16  17  18  19  20  21  22  24  25 0
 3-21G
 ****
 27  28  29  32  34  39  40  41  42  43  44  45  46  47  48  49 0
 3-21G
 ****


