%nproc=1
%NoSave
%Mem=1900MB
#P OB98/GEN NMR

erre ene a

0 1
  C     -377.066    -584.951    -892.280
  O     -377.521    -585.246    -893.580
  P     -377.162    -586.659    -894.270
  C     -375.068    -588.057    -894.770
  O     -375.576    -586.827    -894.230
  C     -373.918    -587.776    -895.720
  O     -372.784    -587.165    -895.030
  C     -373.340    -589.011    -896.400
  O     -374.188    -589.511    -897.410
  C     -372.027    -588.476    -896.940
  O     -372.215    -587.761    -898.170
  C     -371.615    -587.509    -895.810
  N     -370.565    -588.039    -894.940
  C     -369.253    -587.626    -895.180
  O     -369.033    -586.858    -896.140
  N     -368.263    -588.064    -894.350
  C     -368.495    -588.916    -893.420
  N     -367.479    -589.243    -892.600
  C     -369.835    -589.513    -893.240
  C     -370.813    -589.048    -894.010
  O     -377.776    -586.893    -895.610
  O     -377.676    -587.735    -893.180
  H     -378.210    -588.427    -893.670
  H     -371.350    -587.340    -898.380
  H     -369.961    -590.295    -892.500
  H     -371.828    -589.404    -893.910
  H     -371.250    -586.542    -896.240
  H     -371.319    -589.261    -897.120
  H     -373.135    -589.775    -895.630
  H     -374.254    -587.047    -896.520
  H     -366.606    -588.802    -892.760
  H     -375.866    -588.545    -895.290
  H     -367.636    -589.664    -891.690
  H     -374.723    -588.688    -893.940
  P     -373.736    -590.921    -898.080
  C     -371.584    -591.735    -899.300
  O     -372.312    -590.634    -898.790
  O     -374.727    -591.047    -899.350
  O     -373.800    -592.111    -897.220
  H     -374.959    -591.975    -899.500
  H     -370.842    -591.352    -900.000
  H     -372.247    -592.434    -899.810
  H     -371.046    -592.245    -898.450
  H     -377.403    -583.975    -891.997
  H     -375.997    -584.979    -892.262
  H     -377.453    -585.675    -891.594

 3  4  5  6  7  8  9  10  11  12  13  24  27  28  29  30  32 0
 6-311+G(2d,p)
 ****
 34  35 0
 6-311+G(2d,p)
 ****
 1  2  14  15  16  17  18  19  20  21  22  23  25  26 0
 3-21G
 ****
 31  33  36  37  38  39  40  41  42  43  44  45  46 0
 3-21G
 ****


