%nproc=1
%NoSave
%Mem=1900MB
#P OB98/GEN NMR

erre ene a

0 1
  C      344.074    -375.571      66.614
  O      342.962    -376.312      66.144
  H      343.943    -374.523      66.327
  H      344.994    -375.947      66.165
  H      344.134    -375.633      67.704
  P      342.954    -377.878      66.483
  C      342.937    -378.611      63.981
  O      342.262    -378.600      65.227
  C      341.972    -378.991      62.848
  O      341.175    -377.819      62.507
  C      342.672    -379.443      61.555
  O      341.793    -380.363      60.878
  C      342.750    -378.148      60.771
  O      343.062    -378.383      59.423
  C      341.371    -377.575      61.093
  N      341.138    -374.037      57.396
  C      341.200    -375.389      57.350
  N      341.244    -376.263      58.378
  C      341.204    -375.618      59.555
  C      341.131    -374.251      59.766
  C      341.103    -373.437      58.619
  N      341.048    -372.066      58.661
  N      341.110    -373.966      61.121
  C      341.165    -375.135      61.717
  N      341.231    -376.164      60.813
  O      341.861    -377.998      67.645
  O      344.272    -378.452      66.887
  H      344.009    -378.629      59.319
  H      342.301    -377.981      68.518
  H      341.218    -375.822      56.357
  H      341.172    -375.301      62.787
  H      340.575    -378.103      60.550
  H      343.540    -377.500      61.167
  H      343.637    -379.926      61.732
  H      341.277    -379.754      63.216
  H      343.753    -379.344      64.034
  H      343.359    -377.622      63.782
  H      341.047    -371.556      57.792
  H      341.041    -371.603      59.563
  P      342.429    -381.490      59.916
  C      342.063    -380.253      57.635
  O      341.757    -381.364      58.466
  O      341.758    -382.829      60.481
  O      343.919    -381.593      59.942
  H      342.346    -383.589      60.321
  H      341.526    -380.338      56.713
  H      343.114    -380.236      57.435
  H      341.780    -379.348      58.131

 6  7  8  9  10  11  12  13  14  15  25  28  32  33  34  35 0
 6-311+G(2d,p)
 ****
 36  37  40 0
 6-311+G(2d,p)
 ****
 1  2  3  4  5  16  17  18  19  20  21  22  23  24 0
 3-21G
 ****
 26  27  29  30  31  38  39 41  42  43  44  45  46  47  48 0
 3-21G
 ****


