%nproc=1
%NoSave
%Mem=1900MB
#P OB98/GEN NMR

erre ene a

0 1
  C     -376.360     325.839    -141.430
  O     -375.219     326.339    -140.758
  H     -376.040     325.087    -142.156
  H     -376.865     326.649    -141.962
  H     -377.045     325.376    -140.716
  P     -375.481     327.442    -139.626
  C     -374.767     329.930    -139.440
  O     -375.003     328.819    -140.300
  C     -373.987     331.015    -140.176
  O     -372.611     330.633    -140.347
  C     -374.501     331.323    -141.580
  O     -375.631     332.187    -141.525
  C     -373.291     332.010    -142.184
  O     -373.242     333.382    -141.745
  C     -372.115     331.224    -141.577
  N     -367.985     328.335    -142.551
  C     -368.160     329.411    -141.754
  N     -369.272     330.152    -141.575
  C     -370.287     329.691    -142.326
  C     -370.252     328.606    -143.193
  C     -369.037     327.904    -143.287
  N     -368.865     326.799    -144.092
  N     -371.478     328.425    -143.803
  C     -372.248     329.359    -143.276
  N     -371.565     330.168    -142.410
  O     -374.916     327.137    -138.279
  O     -377.078     327.568    -139.685
  H     -372.394     333.760    -142.046
  H     -377.391     327.513    -140.604
  H     -367.289     329.713    -141.179
  H     -373.310     329.473    -143.477
  H     -371.278     331.886    -141.307
  H     -373.327     332.030    -143.276
  H     -374.709     330.400    -142.136
  H     -374.002     331.920    -139.554
  H     -374.212     329.611    -138.554
  H     -367.926     326.467    -144.231
  H     -369.608     326.557    -144.724
  H     -375.744     330.314    -139.125
  P     -376.734     332.158    -142.690
  C     -376.916     333.094    -145.081
  O     -376.045     332.817    -143.984
  O     -378.054     332.748    -142.322
  O     -376.860     330.619    -143.090
  H     -377.793     330.389    -143.284
  H     -376.354     333.528    -145.882
  H     -377.677     333.778    -144.768
  H     -377.369     332.184    -145.415

 6  7  8  9  10  11  12  13  14  15  25  28  32  33  34  35 0
 6-311+G(2d,p)
 ****
 36  39  40 0
 6-311+G(2d,p)
 ****
 1  2  3  4  5  16  17  18  19  20  21  22  23  24 0
 3-21G
 ****
 26  27  29  30  31  37  38  41  42  43  44  45  46  47 0
 3-21G
 ****
 48 0
 3-21G
 ****


