%nproc=1
%NoSave
%Mem=1900MB
#P OB98/GEN NMR

erre ene a

0 1
  C     -287.959    -143.563     226.037
  O     -288.668    -142.968     224.945
  P     -287.777    -142.359     223.752
  C     -287.861    -140.069     224.970
  O     -287.056    -141.024     224.293
  C     -287.449    -138.629     224.614
  O     -286.142    -138.316     225.172
  C     -287.361    -138.375     223.103
  O     -287.747    -137.014     222.870
  C     -285.874    -138.513     222.819
  O     -285.515    -137.884     221.590
  C     -285.293    -137.884     224.087
  N     -280.434    -136.313     223.902
  C     -281.597    -135.693     223.612
  N     -282.856    -136.189     223.666
  C     -282.838    -137.457     224.108
  C     -281.732    -138.225     224.442
  C     -280.476    -137.603     224.322
  N     -279.289    -138.245     224.591
  N     -282.119    -139.502     224.819
  C     -283.437    -139.499     224.709
  N     -283.919    -138.283     224.319
  O     -288.876    -141.799     222.726
  O     -286.877    -143.355     223.097
  H     -284.594    -138.145     221.372
  H     -288.912    -142.372     221.936
  H     -281.509    -134.658     223.285
  H     -284.080    -140.350     224.892
  H     -285.314    -136.783     224.055
  H     -285.604    -139.576     222.754
  H     -287.970    -139.046     222.491
  H     -288.177    -137.942     225.060
  H     -287.776    -140.209     226.051
  H     -278.429    -137.739     224.452
  H     -279.303    -139.219     224.856
  H     -288.915    -140.253     224.728
  P     -289.315    -136.742     222.662
  C     -288.959    -136.686     220.092
  O     -289.665    -137.246     221.181
  O     -289.410    -135.142     222.556
  O     -290.184    -137.278     223.758
  H     -290.299    -134.837     222.821
  H     -288.731    -137.481     219.369
  H     -288.023    -136.214     220.398
  H     -289.592    -135.934     219.604
  H     -288.658    -143.928     226.760
  H     -287.325    -142.831     226.492
  H     -287.363    -144.375     225.675

 3  4  5  6  7  8  9  10  11  12  22  25  29  30  31  32 0
 6-311+G(2d,p)
 ****
 33  36  37 0
 6-311+G(2d,p)
 ****
 1  2  13  14  15  16  17  18  19  20  21  23  24  26 0
 3-21G
 ****
 27  28  34  35  38  39  40  41  42  43  44  45  46  47  48 0
 3-21G
 ****


