%nproc=1
%NoSave
%Mem=1900MB
#P OB98/GEN NMR

erre ene a

0 1
  C      244.991     -75.994     167.508
  O      244.900     -74.930     166.580
  H      245.764     -75.757     168.240
  H      245.259     -76.917     166.993
  H      244.038     -76.127     168.029
  P      243.781     -75.073     165.436
  C      243.763     -76.098     163.034
  O      244.534     -75.690     164.162
  C      244.669     -76.323     161.823
  O      245.578     -75.188     161.704
  C      245.552     -77.584     161.933
  O      245.797     -78.090     160.608
  C      246.842     -77.016     162.502
  O      247.900     -77.931     162.326
  C      246.920     -75.723     161.703
  N      251.857     -74.699     162.491
  C      251.236     -75.695     161.815
  N      249.912     -75.891     161.642
  C      249.213     -74.909     162.236
  C      249.702     -73.831     162.951
  C      251.102     -73.749     163.079
  N      251.734     -72.748     163.780
  N      248.662     -73.049     163.425
  C      247.570     -73.638     162.992
  N      247.847     -74.763     162.261
  O      243.498     -73.554     165.010
  O      242.536     -75.784     165.835
  H      248.762     -77.509     162.497
  H      242.748     -73.198     165.524
  H      251.894     -76.432     161.358
  H      246.551     -73.308     163.178
  H      247.211     -75.886     160.653
  H      246.748     -76.818     163.571
  H      245.104     -78.369     162.553
  H      244.058     -76.342     160.911
  H      243.029     -75.313     162.818
  H      243.235     -77.028     163.277
  H      252.740     -72.777     163.850
  H      251.184     -72.049     164.266
  P      245.775     -79.679     160.363
  C      247.470     -81.671     160.338
  O      247.227     -80.308     160.658
  O      245.682     -79.775     158.765
  O      244.630     -80.413     160.990
  H      245.009     -80.431     158.515
  H      248.477     -81.924     160.596
  H      247.322     -81.823     159.289
  H      246.794     -82.292     160.887

 6  7  8  9  10  11  12  13  14  15  25  28  32  33  34  35 0
 6-311+G(2d,p)
 ****
 36  37  40 0
 6-311+G(2d,p)
 ****
 1  2  3  4  5  16  17  18  19  20  21  22  23  24 0
 3-21G
 ****
 26  27  29  30  31  38  39 41  42  43  44  45  46  47  48 0
 3-21G
 ****


