%nproc=1
%NoSave
%Mem=1900MB
#P OB98/GEN NMR

erre ene a

0 1
  C     -184.960    -105.595     567.523
  O     -185.502    -105.952     566.269
  H     -185.706    -105.020     568.079
  H     -184.069    -104.978     567.387
  H     -184.709    -106.490     568.097
  P     -184.575    -106.845     565.311
  C     -185.558    -108.937     566.507
  O     -184.393    -108.258     566.053
  C     -185.461    -110.419     566.161
  O     -185.224    -110.567     564.742
  C     -184.308    -111.145     566.845
  O     -184.616    -111.480     568.189
  C     -184.144    -112.362     565.940
  O     -185.075    -113.400     566.277
  C     -184.476    -111.789     564.556
  N     -180.375    -113.941     562.424
  C     -181.427    -114.464     563.089
  N     -182.493    -113.822     563.611
  C     -182.408    -112.500     563.383
  C     -181.392    -111.823     562.725
  C     -180.335    -112.602     562.229
  N     -179.244    -112.064     561.584
  N     -181.636    -110.464     562.732
  C     -182.784    -110.324     563.368
  N     -183.285    -111.529     563.772
  O     -183.139    -106.152     565.456
  O     -185.019    -106.925     563.889
  H     -185.960    -112.982     566.306
  H     -183.010    -105.513     564.731
  H     -181.408    -115.542     563.221
  H     -183.276    -109.381     563.566
  H     -185.107    -112.467     563.968
  H     -183.144    -112.785     566.020
  H     -183.395    -110.542     566.796
  H     -186.417    -110.896     566.399
  H     -186.441    -108.508     566.015
  H     -185.650    -108.798     567.589
  H     -178.513    -112.680     561.277
  H     -179.156    -111.058     561.529
  P     -183.419    -111.918     569.159
  C     -182.938    -109.388     569.533
  O     -182.403    -110.679     569.268
  O     -182.612    -112.993     568.288
  O     -183.855    -112.478     570.471
  H     -182.850    -113.898     568.562
  H     -182.142    -108.674     569.576
  H     -183.456    -109.402     570.469
  H     -183.619    -109.117     568.753

 6  7  8  9  10  11  12  13  14  15  25  28  32  33  34  35 0
 6-311+G(2d,p)
 ****
 36  37  40 0
 6-311+G(2d,p)
 ****
 1  2  3  4  5  16  17  18  19  20  21  22  23  24 0
 3-21G
 ****
 26  27  29  30  31  38  39 41  42  43  44  45  46  47  48 0
 3-21G
 ****


