%nproc=1
%NoSave
%Mem=1900MB
#P OB98/GEN NMR

erre ene a

0 1
  C      764.482    -600.727     -89.524
  O      765.740    -600.967     -90.128
  H      764.503    -601.017     -88.471
  H      764.263    -599.657     -89.592
  H      763.703    -601.283     -90.058
  P      766.298    -602.464     -90.038
  C      766.671    -603.935     -87.932
  O      766.843    -602.664     -88.539
  C      766.764    -603.811     -86.417
  O      765.560    -603.215     -85.890
  C      766.907    -605.139     -85.676
  O      768.241    -605.632     -85.722
  C      766.510    -604.727     -84.265
  O      767.631    -604.087     -83.618
  C      765.402    -603.695     -84.527
  N      761.522    -604.500     -81.258
  C      762.744    -603.925     -81.088
  N      763.728    -603.759     -82.000
  C      763.343    -604.228     -83.197
  C      762.144    -604.830     -83.514
  C      761.200    -604.967     -82.490
  N      759.971    -605.559     -82.660
  N      762.106    -605.173     -84.851
  C      763.270    -604.782     -85.335
  N      764.058    -604.217     -84.368
  O      767.638    -602.421     -90.912
  O      765.362    -603.527     -90.522
  H      768.383    -604.708     -83.695
  H      767.740    -603.273     -91.380
  H      762.951    -603.564     -80.087
  H      763.584    -604.889     -86.369
  H      765.506    -602.817     -83.869
  H      766.202    -605.562     -83.643
  H      766.188    -605.888     -86.047
  H      767.606    -603.147     -86.174
  H      767.457    -604.613     -88.286
  H      759.273    -605.447     -81.944
  H      759.738    -605.897     -83.588
  H      765.696    -604.343     -88.224
  P      768.458    -607.196     -85.449
  C      767.803    -608.666     -83.408
  O      768.253    -607.397     -83.866
  O      770.036    -607.380     -85.636
  O      767.684    -608.113     -86.335
  H      770.236    -608.299     -85.882
  H      767.714    -608.649     -82.342
  H      768.507    -609.419     -83.695
  H      766.850    -608.884     -83.842

 6  7  8  9  10  11  12  13  14  15  25  28  32  33  34  35 0
 6-311+G(2d,p)
 ****
 36  39  40 0
 6-311+G(2d,p)
 ****
 1  2  3  4  5  16  17  18  19  20  21  22  23  24 0
 3-21G
 ****
 26  27  29  30  31  37  38  41  42  43  44  45  46  47  48 0
 3-21G
 ****


