%nproc=1
%NoSave
%Mem=1900MB
#P OB98/GEN NMR

erre ene a

0 1
  C     -207.957      70.976      61.416
  O     -206.626      70.633      61.077
  P     -206.227      70.311      59.561
  C     -206.686      68.471      57.836
  O     -206.845      68.875      59.190
  C     -207.371      67.134      57.570
  O     -208.711      67.162      58.134
  C     -207.512      66.767      56.082
  O     -207.388      65.341      55.992
  C     -208.940      67.177      55.769
  O     -209.463      66.529      54.615
  C     -209.626      66.796      57.081
  N     -214.716      66.267      57.150
  C     -213.725      65.391      56.874
  N     -212.392      65.615      56.852
  C     -212.120      66.897      57.151
  C     -213.026      67.910      57.421
  C     -214.385      67.551      57.428
  N     -215.407      68.425      57.736
  N     -212.363      69.110      57.625
  C     -211.085      68.818      57.481
  N     -210.887      67.477      57.261
  O     -204.776      70.466      59.237
  O     -207.121      71.323      58.698
  H     -209.074      66.943      53.822
  H     -206.561      72.040      58.348
  H     -214.040      64.373      56.656
  H     -210.269      69.526      57.528
  H     -209.812      65.718      57.147
  H     -208.986      68.262      55.600
  H     -206.779      67.257      55.429
  H     -206.815      66.349      58.104
  H     -205.613      68.377      57.636
  H     -216.333      68.031      57.844
  H     -215.183      69.299      58.209
  H     -207.095      69.244      57.169
  P     -206.693      64.678      54.712
  C     -207.340      64.203      52.280
  O     -207.768      64.727      53.527
  O     -206.062      63.339      54.947
  O     -205.606      65.772      54.266
  H     -204.947      65.361      53.683
  H     -206.735      64.954      51.755
  H     -208.220      63.968      51.673
  H     -206.747      63.292      52.415
  H     -208.022      71.153      62.469
  H     -208.611      70.173      61.148
  H     -208.243      71.861      60.887

 3  4  5  6  7  8  9  10  11  12  22  25  29  30  31  32 0
 6-311+G(2d,p)
 ****
 33  36  37 0
 6-311+G(2d,p)
 ****
 1  2  13  14  15  16  17  18  19  20  21  23  24  26 0
 3-21G
 ****
 27  28  34  35  38  39  40  41  42  43  44  45  46  47  48 0
 3-21G
 ****


