%nproc=1
%NoSave
%Mem=1900MB
#P OB98/GEN NMR

erre ene a

0 1
  C     -578.089     249.932     -38.266
  O     -577.627     250.664     -39.386
  H     -578.990     250.417     -37.878
  H     -577.327     249.921     -37.483
  H     -578.335     248.909     -38.563
  P     -576.271     250.143     -40.066
  C     -577.292     248.422     -41.707
  O     -576.545     248.629     -40.519
  C     -576.408     247.813     -42.795
  O     -575.114     248.458     -42.815
  C     -576.151     246.321     -42.638
  O     -577.218     245.564     -43.185
  C     -574.856     246.159     -43.419
  O     -575.109     246.100     -44.838
  C     -574.100     247.447     -43.060
  N     -569.994     245.164     -41.197
  C     -570.649     244.979     -42.399
  N     -570.162     244.019     -43.215
  N     -571.712     245.656     -42.765
  C     -572.124     246.541     -41.825
  C     -571.558     246.822     -40.605
  C     -570.356     246.100     -40.239
  O     -569.679     246.279     -39.226
  N     -572.258     247.800     -39.941
  C     -573.262     248.087     -40.749
  N     -573.224     247.345     -41.904
  O     -575.270     249.983     -38.822
  O     -575.691     251.040     -41.109
  H     -574.272     245.957     -45.306
  H     -574.376     250.254     -39.104
  H     -569.164     244.639     -40.988
  H     -574.029     248.821     -40.551
  H     -573.479     247.805     -43.889
  H     -574.342     245.231     -43.159
  H     -569.559     243.284     -42.877
  H     -575.974     246.061     -41.588
  H     -570.692     243.830     -44.059
  H     -576.886     248.021     -43.760
  H     -577.686     249.380     -42.055
  H     -578.128     247.746     -41.495
  P     -577.527     244.126     -42.547
  C     -579.828     244.779     -41.540
  O     -578.499     244.334     -41.288
  O     -576.126     243.725     -41.879
  O     -577.963     243.094     -43.532
  H     -575.685     243.046     -42.419
  H     -580.355     244.872     -40.613
  H     -580.329     244.070     -42.166
  H     -579.799     245.730     -42.031

 6  7  8  9  10  11  12  13  14  15  26  29  33  34 0
 6-311+G(2d,p)
 ****
 36  38  39  40  41 0
 6-311+G(2d,p)
 ****
 1  2  3  4  5  16  17  18  19  20  21  22  23  24  25 0
 3-21G
 ****
 27  28  30  31  32  35  37  42  43  44  45  46  47 0
 3-21G
 ****
 48  49 0
 3-21G
 ****


