%nproc=1
%NoSave
%Mem=1900MB
#P OB98/GEN NMR

erre ene a

0 1
  C     -118.677    -648.346     501.196
  O     -119.310    -649.385     500.482
  H     -118.245    -647.640     500.481
  H     -117.869    -648.749     501.817
  H     -119.393    -647.807     501.825
  P     -120.182    -650.458     501.292
  C     -122.063    -650.212     499.537
  O     -121.208    -651.103     500.243
  C     -122.344    -650.737     498.121
  O     -121.106    -650.662     497.344
  C     -122.817    -652.206     498.076
  O     -123.668    -652.333     496.920
  C     -121.495    -652.921     497.861
  O     -121.665    -654.274     497.512
  C     -120.859    -651.986     496.830
  N     -119.437    -652.189     496.595
  C     -119.064    -653.031     495.548
  O     -119.856    -653.616     494.803
  N     -117.718    -653.199     495.374
  C     -116.727    -652.615     496.106
  O     -115.536    -652.781     495.880
  C     -117.181    -651.749     497.206
  C     -118.489    -651.575     497.392
  O     -120.800    -649.971     502.557
  O     -119.152    -651.657     501.558
  H     -118.831    -651.617     502.481
  H     -121.989    -654.768     498.298
  H     -117.428    -653.802     494.612
  H     -116.419    -651.276     497.814
  H     -118.856    -650.929     498.182
  H     -121.389    -652.065     495.874
  H     -120.926    -652.930     498.792
  H     -123.363    -652.508     498.969
  H     -123.061    -650.072     497.636
  H     -121.568    -649.238     499.479
  H     -123.000    -650.107     500.090
  P     -124.957    -653.292     496.874
  C     -126.605    -651.555     495.886
  O     -125.915    -652.793     495.692
  O     -125.652    -653.432     498.192
  O     -124.410    -654.705     496.360
  H     -124.993    -655.412     496.682
  H     -127.205    -651.343     495.026
  H     -125.893    -650.768     496.027
  H     -127.232    -651.628     496.750

 6  7  8  9  10  11  12  13  14  15  16  27  31  32  33  34  35 0
 6-311+G(2d,p)
 ****
 36  37 0
 6-311+G(2d,p)
 ****
 1  2  3  4  5  17  18  19  20  21  22  23  24  25 0
 3-21G
 ****
 26  28  29  30  38  39  40  41  42  43  44  45 0
 3-21G
 ****


