%nproc=1
%NoSave
%Mem=1900MB
#P OB98/GEN NMR

erre ene a

0 1
  C      217.292    -133.865    -599.820
  O      216.136    -134.135    -599.019
  P      215.754    -133.041    -597.902
  C      215.460    -134.661    -595.879
  O      214.834    -133.776    -596.804
  C      214.415    -135.506    -595.155
  O      214.013    -136.633    -595.957
  C      214.900    -136.114    -593.846
  O      214.864    -135.173    -592.779
  C      213.871    -137.215    -593.624
  O      212.685    -136.658    -593.019
  C      213.574    -137.684    -595.062
  N      213.233    -142.735    -595.347
  C      212.298    -141.802    -594.913
  N      211.096    -142.292    -594.534
  N      212.526    -140.522    -594.868
  C      213.765    -140.172    -595.309
  C      214.774    -140.998    -595.753
  C      214.519    -142.426    -595.770
  O      215.318    -143.296    -596.108
  N      215.882    -140.285    -596.124
  C      215.535    -139.029    -595.931
  N      214.266    -138.908    -595.418
  O      214.719    -132.088    -598.665
  O      216.928    -132.289    -597.372
  H      212.183    -137.406    -592.634
  H      214.736    -131.192    -598.280
  H      213.003    -143.712    -595.354
  H      216.166    -138.167    -596.141
  H      212.505    -137.828    -595.223
  H      214.229    -138.002    -592.958
  H      210.825    -143.263    -594.616
  H      215.899    -136.560    -593.964
  H      210.385    -141.623    -594.253
  H      213.534    -134.878    -594.968
  H      216.031    -134.081    -595.147
  H      216.175    -135.285    -596.416
  P      216.246    -134.869    -592.024
  C      215.590    -135.434    -589.572
  O      215.832    -134.426    -590.536
  O      216.744    -133.508    -592.708
  O      217.259    -135.957    -592.122
  H      217.723    -133.456    -592.679
  H      216.335    -136.232    -589.629
  H      214.586    -135.857    -589.730
  H      215.627    -134.988    -588.575
  H      217.436    -134.663    -600.519
  H      218.152    -133.784    -599.189
  H      217.151    -132.947    -600.351

 3  4  5  6  7  8  9  10  11  12  23  26  30  31  33  0
 6-311+G(2d,p)
 ****
 35  36  37  38 0
 6-311+G(2d,p)
 ****
 1  2  13  14  15  16  17  18  19  20  21  22  24  25  27  28  29 0
 3-21G
 ****
 32  34  39  40  41  42  43  44  45  46  47  48  49 0
 3-21G
 ****


