%nproc=1
%NoSave
%Mem=1900MB
#P OB98/GEN NMR

erre ene a

0 1
  C       81.045     231.649     -15.736
  O       82.396     231.538     -15.330
  H       80.774     230.753     -16.298
  H       80.918     232.524     -16.380
  H       80.393     231.730     -14.863
  P       82.984     232.757     -14.471
  C       85.365     233.217     -15.427
  O       84.575     232.557     -14.450
  C       86.781     232.628     -15.456
  O       87.510     233.105     -14.286
  C       86.817     231.093     -15.405
  O       88.004     230.655     -16.087
  C       86.963     230.837     -13.914
  O       87.341     229.503     -13.663
  C       87.963     231.936     -13.567
  N       89.509     230.186      -9.019
  C       89.635     229.684     -10.266
  N       89.209     230.212     -11.430
  C       88.613     231.399     -11.224
  C       88.419     232.043     -10.013
  C       88.895     231.382      -8.867
  N       88.759     231.888      -7.595
  N       87.762     233.245     -10.200
  C       87.565     233.324     -11.501
  N       88.055     232.228     -12.157
  O       82.536     232.405     -12.976
  O       82.528     234.115     -14.887
  H       88.175     229.283     -14.129
  H       81.705     232.869     -12.761
  H       90.145     228.725     -10.337
  H       87.071     234.140     -12.013
  H       88.972     231.697     -13.923
  H       86.012     230.997     -13.396
  H       85.941     230.621     -15.859
  H       87.310     233.011     -16.336
  H       85.412     234.282     -15.172
  H       84.903     233.101     -16.410
  H       89.116     231.344      -6.824
  H       88.289     232.771      -7.465
  P       87.908     230.237     -17.637
  C       89.978     228.662     -17.364
  O       89.337     229.686     -18.110
  O       87.850     231.669     -18.363
  O       86.726     229.407     -18.013
  H       87.366     231.586     -19.206
  H       90.915     228.420     -17.822
  H       89.356     227.792     -17.345
  H       90.147     229.002     -16.364

 6  7  8  9  10  11  12  13  14  15  25  28  32  33  34  35 0
 6-311+G(2d,p)
 ****
 36  37  40 0
 6-311+G(2d,p)
 ****
 1  2  3  4  5  16  17  18  19  20  21  22  23  24 0
 3-21G
 ****
 26  27  29  30  31  38  39 41  42  43  44  45  46  47  48 0
 3-21G
 ****


