%nproc=1
%NoSave
%Mem=1900MB
#P OB98/GEN NMR

erre ene a

0 1
  C      -76.272      97.586     -35.673
  O      -76.994      98.312     -34.687
  P      -76.353      98.408     -33.216
  C      -78.661      97.659     -32.291
  O      -77.253      97.455     -32.291
  C      -79.396      96.324     -32.222
  O      -78.958      95.460     -33.289
  C      -79.166      95.541     -30.939
  O      -79.993      95.990     -29.879
  C      -79.577      94.145     -31.376
  O      -81.012      94.034     -31.372
  C      -79.048      94.091     -32.814
  N      -76.596      89.616     -33.134
  C      -77.901      89.917     -32.964
  N      -78.474      91.135     -32.878
  C      -77.546      92.103     -32.945
  C      -76.176      91.947     -33.079
  C      -75.700      90.631     -33.188
  N      -74.372      90.327     -33.389
  N      -75.549      93.173     -33.107
  C      -76.520      94.054     -33.004
  N      -77.746      93.458     -32.913
  O      -76.763      99.880     -32.740
  O      -74.881      98.186     -33.154
  H      -81.303      94.165     -30.449
  H      -76.148     100.190     -32.048
  H      -78.575      89.067     -32.899
  H      -76.384      95.127     -33.000
  H      -79.726      93.558     -33.488
  H      -79.193      93.362     -30.716
  H      -78.105      95.540     -30.659
  H      -80.467      96.521     -32.365
  H      -78.946      98.177     -33.211
  H      -74.138      89.380     -33.640
  H      -73.743      91.085     -33.628
  H      -78.930      98.288     -31.436
  P      -79.261      96.718     -28.649
  C      -79.882      94.760     -27.059
  O      -78.856      95.541     -27.641
  O      -80.462      97.470     -27.907
  O      -78.169      97.650     -29.053
  H      -80.128      98.241     -27.412
  H      -79.441      93.839     -26.667
  H      -80.643      94.493     -27.797
  H      -80.343      95.308     -26.234
  H      -76.812      97.605     -36.597
  H      -76.150      96.573     -35.352
  H      -75.310      98.034     -35.813

 3  4  5  6  7  8  9  10  11  12  22  25  29  30  31  32 0
 6-311+G(2d,p)
 ****
 33  36  37 0
 6-311+G(2d,p)
 ****
 1  2  13  14  15  16  17  18  19  20  21  23  24  26 0
 3-21G
 ****
 27  28  34  35  38  39  40  41  42  43  44  45  46  47  48 0
 3-21G
 ****


