%nproc=1
%NoSave
%Mem=1900MB
#P OB98/GEN NMR

erre ene a

0 1
  C     -165.098     278.289      67.518
  O     -164.036     278.176      66.596
  H     -165.520     279.292      67.444
  H     -164.722     278.139      68.534
  H     -165.885     277.561      67.306
  P     -163.450     276.725      66.264
  C     -164.423     274.394      65.727
  O     -164.705     275.746      66.045
  C     -165.670     273.690      65.179
  O     -166.668     273.618      66.229
  C     -166.296     274.479      64.023
  O     -166.998     273.635      63.116
  C     -167.294     275.379      64.733
  O     -168.346     275.832      63.882
  C     -167.766     274.473      65.869
  N     -171.664     276.837      68.154
  C     -171.557     276.385      66.853
  N     -172.636     276.583      66.057
  N     -170.490     275.807      66.371
  C     -169.465     275.738      67.255
  C     -169.441     276.173      68.561
  C     -170.643     276.776      69.094
  O     -170.781     277.217      70.232
  N     -168.219     275.938      69.144
  C     -167.507     275.369      68.193
  N     -168.225     275.204      67.033
  O     -162.865     276.222      67.669
  O     -162.410     276.676      65.187
  H     -168.765     275.046      63.491
  H     -162.193     275.533      67.531
  H     -172.518     277.246      68.484
  H     -166.476     275.046      68.295
  H     -168.594     273.834      65.535
  H     -166.762     276.266      65.089
  H     -173.392     277.192      66.333
  H     -165.566     275.063      63.470
  H     -172.467     276.550      65.049
  H     -165.428     272.659      64.900
  H     -164.082     273.913      66.649
  H     -163.598     274.335      65.011
  P     -166.526     273.592      61.586
  C     -164.089     272.988      60.741
  O     -165.264     272.624      61.432
  O     -165.921     275.049      61.334
  O     -167.615     273.262      60.613
  H     -166.454     275.528      60.673
  H     -163.390     272.178      60.774
  H     -163.657     273.851      61.202
  H     -164.329     273.211      59.722

 6  7  8  9  10  11  12  13  14  15  26  29  33  34 0
 6-311+G(2d,p)
 ****
 36  38  39  40  41 0
 6-311+G(2d,p)
 ****
 1  2  3  4  5  16  17  18  19  20  21  22  23  24  25 0
 3-21G
 ****
 27  28  30  31  32  35  37  42  43  44  45  46  47 0
 3-21G
 ****
 48  49 0
 3-21G
 ****


