%nproc=1
%NoSave
%Mem=1900MB
#P OB98/GEN NMR

erre ene a

0 1
  C      129.812     -95.144      14.577
  O      130.194     -93.943      15.206
  P      131.174     -92.871      14.549
  C      133.262     -91.561      15.420
  O      132.487     -92.753      15.462
  C      133.120     -90.766      16.726
  O      131.790     -90.187      16.770
  C      133.253     -91.674      17.958
  O      134.016     -91.110      19.016
  C      131.808     -92.047      18.263
  O      131.605     -92.504      19.592
  C      131.069     -90.769      17.876
  N      126.434     -88.700      17.659
  C      127.649     -88.088      17.893
  N      127.596     -86.800      18.299
  N      128.800     -88.698      17.776
  C      128.687     -90.012      17.476
  C      127.541     -90.728      17.219
  C      126.279     -90.034      17.319
  O      125.172     -90.564      17.232
  N      127.805     -92.057      17.014
  C      129.108     -92.155      17.180
  N      129.683     -90.946      17.494
  O      130.549     -91.609      14.049
  O      131.731     -93.682      13.266
  H      132.360     -93.074      19.826
  H      131.869     -93.028      12.552
  H      125.574     -88.197      17.845
  H      129.680     -93.074      17.114
  H      131.068     -90.045      18.693
  H      131.534     -92.874      17.599
  H      126.724     -86.351      18.539
  H      133.807     -92.585      17.705
  H      128.439     -86.412      18.713
  H      133.843     -89.944      16.729
  H      132.880     -90.974      14.578
  H      134.311     -91.792      15.221
  P      134.449     -91.773      20.403
  C      133.269     -92.383      22.598
  O      133.127     -92.194      21.203
  O      135.023     -90.566      21.279
  O      135.470     -92.857      20.285
  H      135.802     -90.868      21.782
  H      132.395     -92.923      22.970
  H      133.326     -91.412      23.097
  H      134.169     -92.966      22.822
  H      129.152     -95.689      15.219
  H      130.682     -95.734      14.376
  H      129.312     -94.922      13.658

 3  4  5  6  7  8  9  10  11  12  23  26  30  31 0
 6-311+G(2d,p)
 ****
 33  35  36  37  38 0
 6-311+G(2d,p)
 ****
 1  2  13  14  15  16  17  18  19  20  21  22  24  25 0
 3-21G
 ****
 27  28  29  32  34  39  40  41  42  43  44  45  46  47  48  49 0
 3-21G
 ****


