%nproc=1
%NoSave
%Mem=1900MB
#P OB98/GEN NMR

erre ene a

0 1
  C      317.084     140.343    -206.467
  O      316.561     140.764    -205.224
  H      316.873     141.092    -207.234
  H      318.167     140.227    -206.373
  H      316.651     139.378    -206.761
  P      314.964     140.824    -205.092
  C      314.698     143.370    -204.631
  O      314.543     142.305    -205.560
  C      313.570     144.392    -204.800
  O      313.741     145.068    -206.077
  C      312.169     143.766    -204.789
  O      311.278     144.640    -204.092
  C      311.796     143.715    -206.262
  O      310.387     143.707    -206.462
  C      312.501     144.956    -206.798
  N      310.401     143.812    -211.317
  C      309.879     143.914    -210.076
  N      310.507     144.230    -208.924
  C      311.805     144.503    -209.151
  C      312.483     144.439    -210.356
  C      311.727     144.065    -211.479
  N      312.261     143.917    -212.742
  N      313.819     144.750    -210.182
  C      313.939     145.000    -208.888
  N      312.751     144.858    -208.226
  O      314.748     140.855    -203.504
  O      314.216     139.706    -205.739
  H      310.020     142.897    -206.049
  H      314.835     139.951    -203.146
  H      308.812     143.710    -209.997
  H      314.858     145.277    -208.388
  H      311.917     145.872    -206.637
  H      312.212     142.805    -206.715
  H      312.150     142.781    -204.323
  H      313.671     145.158    -204.019
  H      315.664     143.858    -204.806
  H      311.655     143.591    -213.481
  H      313.255     144.042    -212.872
  H      314.679     142.965    -203.611
  P      311.498     144.778    -202.506
  C      309.372     143.447    -201.838
  O      310.788     143.528    -201.781
  O      310.572     146.023    -202.109
  O      312.919     145.010    -202.114
  H      311.077     146.654    -201.568
  H      309.044     142.572    -201.318
  H      309.059     143.393    -202.860
  H      308.946     144.315    -201.380

 6  7  8  9  10  11  12  13  14  15  25  28  32  33  34  35 0
 6-311+G(2d,p)
 ****
 36  39  40 0
 6-311+G(2d,p)
 ****
 1  2  3  4  5  16  17  18  19  20  21  22  23  24 0
 3-21G
 ****
 26  27  29  30  31  37  38  41  42  43  44  45  46  47 0
 3-21G
 ****
 48 0
 3-21G
 ****


