%nproc=1
%NoSave
%Mem=1900MB
#P OB98/GEN NMR

erre ene a

0 1
  C     -975.434    -895.131    1427.561
  O     -974.640    -894.591    1426.514
  H     -976.370    -894.571    1427.619
  H     -974.908    -895.021    1428.509
  H     -975.651    -896.191    1427.376
  P     -973.249    -895.321    1426.207
  C     -973.426    -895.791    1423.662
  O     -973.531    -896.321    1424.979
  C     -974.764    -895.851    1422.933
  O     -975.709    -894.961    1423.599
  C     -974.726    -895.461    1421.445
  O     -975.656    -896.301    1420.736
  C     -975.231    -894.031    1421.467
  O     -975.740    -893.621    1420.200
  C     -976.301    -894.131    1422.549
  N     -979.268    -890.181    1421.652
  C     -979.146    -891.371    1420.981
  N     -979.918    -891.541    1419.889
  N     -978.320    -892.331    1421.334
  C     -977.621    -892.031    1422.459
  C     -977.650    -890.901    1423.229
  C     -978.542    -889.821    1422.784
  O     -978.699    -888.751    1423.347
  N     -976.777    -890.961    1424.252
  C     -976.207    -892.161    1424.158
  N     -976.687    -892.841    1423.053
  O     -973.084    -896.301    1427.466
  O     -972.075    -894.421    1426.047
  H     -974.994    -893.611    1419.557
  H     -972.554    -895.881    1428.155
  H     -979.920    -889.481    1421.341
  H     -975.456    -892.561    1424.797
  H     -977.205    -894.641    1422.199
  H     -974.429    -893.341    1421.745
  H     -980.609    -890.891    1419.593
  H     -973.726    -895.561    1420.993
  H     -979.874    -892.431    1419.418
  H     -975.179    -896.891    1423.060
  H     -972.685    -896.381    1423.105
  H     -973.072    -894.741    1423.707
  P     -975.140    -897.691    1420.157
  C     -977.109    -899.201    1421.005
  O     -975.719    -898.861    1421.078
  O     -973.596    -897.681    1420.528
  O     -975.376    -897.861    1418.682
  H     -973.080    -898.211    1419.860
  H     -977.317    -900.000    1421.686
  H     -977.349    -899.510    1420.009
  H     -977.699    -898.348    1421.266

 6  7  8  9  10  11  12  13  14  15  26  29  33  34 0
 6-311+G(2d,p)
 ****
 36  38  39  40  41 0
 6-311+G(2d,p)
 ****
 1  2  3  4  5  16  17  18  19  20  21  22  23  24  25 0
 3-21G
 ****
 27  28  30  31  32  35  37  42  43  44  45  46  47 0
 3-21G
 ****
 48  49 0
 3-21G
 ****


