%nproc=1
%NoSave
%Mem=1900MB
#P OB98/GEN NMR

erre ene a

0 1
  C     -196.304     114.924     112.563
  O     -195.162     115.395     113.242
  H     -196.368     115.428     111.596
  H     -197.199     115.162     113.143
  H     -196.253     113.845     112.394
  P     -194.571     114.527     114.448
  C     -196.044     115.425     116.368
  O     -195.738     114.316     115.532
  C     -197.474     115.350     116.904
  O     -198.408     115.607     115.834
  C     -197.819     113.969     117.468
  O     -197.471     113.787     118.830
  C     -199.333     113.920     117.278
  O     -200.019     114.484     118.409
  C     -199.562     114.777     116.029
  N     -203.018     112.505     113.024
  C     -203.195     113.073     114.272
  N     -204.439     112.989     114.789
  N     -202.232     113.650     114.943
  C     -201.025     113.569     114.340
  C     -200.724     113.014     113.116
  C     -201.809     112.444     112.347
  O     -201.708     111.944     111.232
  N     -199.377     113.080     112.849
  C     -198.860     113.594     113.947
  N     -199.826     113.980     114.845
  O     -193.588     115.551     115.197
  O     -193.834     113.285     114.049
  H     -199.544     114.210     119.217
  H     -192.845     115.060     115.593
  H     -203.802     112.102     112.544
  H     -197.801     113.751     114.124
  H     -200.419     115.449     116.158
  H     -199.680     112.888     117.183
  H     -205.194     112.483     114.357
  H     -197.374     113.180     116.857
  H     -204.567     113.223     115.777
  H     -197.621     116.138     117.653
  H     -195.921     116.319     115.755
  H     -195.329     115.489     117.192
  P     -197.073     112.344     119.389
  C     -199.612     111.851     119.841
  O     -198.367     111.412     119.344
  O     -196.862     112.608     120.953
  O     -195.872     111.719     118.759
  H     -195.914     112.710     121.159
  H     -200.340     111.077     119.714
  H     -199.923     112.723     119.305
  H     -199.518     112.086     120.881

 6  7  8  9  10  11  12  13  14  15  26  29  33  34 0
 6-311+G(2d,p)
 ****
 36  38  39  40  41 0
 6-311+G(2d,p)
 ****
 1  2  3  4  5  16  17  18  19  20  21  22  23  24  25 0
 3-21G
 ****
 27  28  30  31  32  35  37  42  43  44  45  46  47 0
 3-21G
 ****
 48  49 0
 3-21G
 ****


