%nproc=1
%NoSave
%Mem=1900MB
#P OB98/GEN NMR

erre ene a

0 1
  C      -88.933      25.308     113.347
  O      -88.523      25.559     112.017
  H      -89.715      26.024     113.615
  H      -88.087      25.437     114.027
  H      -89.332      24.293     113.437
  P      -87.504      24.512     111.361
  C      -85.305      23.333     112.171
  O      -86.269      24.359     112.375
  C      -83.930      23.802     112.650
  O      -83.931      24.048     114.073
  C      -82.825      22.774     112.463
  O      -82.465      22.605     111.109
  C      -81.733      23.387     113.324
  O      -81.070      24.455     112.637
  C      -82.558      23.934     114.518
  N      -82.442      23.093     115.702
  C      -81.421      23.440     116.600
  O      -80.698      24.408     116.371
  N      -81.236      22.661     117.717
  C      -82.007      21.644     117.934
  N      -81.766      20.910     119.049
  C      -83.110      21.261     117.027
  C      -83.262      22.013     115.943
  O      -86.869      25.350     110.155
  O      -88.101      23.205     110.958
  H      -80.901      24.139     111.727
  H      -86.497      26.208     110.429
  H      -83.737      20.408     117.254
  H      -84.046      21.801     115.222
  H      -82.219      24.945     114.787
  H      -80.968      22.661     113.592
  H      -83.117      21.820     112.919
  H      -83.696      24.745     112.137
  H      -80.989      21.191     119.638
  H      -85.263      23.034     111.118
  H      -82.283      20.077     119.303
  H      -85.623      22.455     112.746
  P      -81.172      21.740     110.718
  C      -78.627      21.953     111.051
  O      -79.906      22.535     111.304
  O      -81.061      21.383     109.273
  O      -81.260      20.476     111.698
  H      -81.246      20.693     112.645
  H      -77.864      22.565     111.485
  H      -78.470      21.883     109.995
  H      -78.588      20.975     111.483

 6  7  8  9  10  11  12  13  14  15  16  26  30  31  32  33  35 0
 6-311+G(2d,p)
 ****
 37  38 0
 6-311+G(2d,p)
 ****
 1  2  3  4  5  17  18  19  20  21  22  23  24  25 0
 3-21G
 ****
 27  28  29  34  36  39  40  41  42  43  44  45  46 0
 3-21G
 ****


