%nproc=1
%NoSave
%Mem=1900MB
#P OB98/GEN NMR

erre ene a

0 1
  C      -52.335     535.494     456.126
  O      -51.624     534.746     457.093
  H      -53.265     534.967     455.887
  H      -51.734     535.589     455.217
  H      -52.580     536.488     456.516
  P      -50.233     535.361     457.601
  C      -48.161     533.968     456.858
  O      -49.129     534.960     456.505
  C      -48.859     532.637     457.123
  O      -49.818     532.356     456.051
  C      -47.921     531.439     457.145
  O      -47.223     531.329     458.368
  C      -48.902     530.294     456.907
  O      -49.544     529.881     458.119
  C      -49.928     530.918     455.941
  N      -50.352     527.052     452.625
  C      -50.748     527.196     453.903
  N      -50.611     528.268     454.711
  C      -50.008     529.283     454.066
  C      -49.549     529.280     452.760
  C      -49.744     528.104     452.023
  N      -49.316     527.949     450.717
  N      -48.949     530.490     452.463
  C      -49.043     531.211     453.562
  N      -49.693     530.513     454.554
  O      -49.878     534.439     458.867
  O      -50.274     536.810     457.960
  H      -48.839     529.506     458.679
  H      -50.113     534.907     459.689
  H      -51.241     526.320     454.343
  H      -48.672     532.218     453.694
  H      -50.952     530.648     456.191
  H      -48.390     529.427     456.494
  H      -47.212     531.488     456.298
  H      -49.432     532.719     458.058
  H      -47.618     534.280     457.759
  H      -47.455     533.867     456.032
  H      -49.422     527.067     450.278
  H      -48.755     528.692     450.297
  P      -45.887     530.427     458.392
  C      -46.063     528.198     459.751
  O      -46.349     528.904     458.548
  O      -45.216     530.776     459.803
  O      -44.947     530.686     457.250
  H      -44.240     530.763     459.723
  H      -46.443     527.200     459.678
  H      -46.527     528.697     460.576
  H      -45.004     528.166     459.903

 6  7  8  9  10  11  12  13  14  15  25  28  32  33  34  35 0
 6-311+G(2d,p)
 ****
 36  37  40 0
 6-311+G(2d,p)
 ****
 1  2  3  4  5  16  17  18  19  20  21  22  23  24 0
 3-21G
 ****
 26  27  29  30  31  38  39 41  42  43  44  45  46  47  48 0
 3-21G
 ****


