%nproc=1
%NoSave
%Mem=1900MB
#P OB98/GEN NMR

erre ene a

0 1
  C      -50.350     -19.494       7.535
  O      -50.255     -18.961       8.844
  P      -51.238     -19.531       9.977
  C      -52.697     -17.350       9.825
  O      -52.636     -18.764       9.794
  C      -54.154     -16.880       9.776
  O      -54.771     -17.381       8.557
  C      -55.015     -17.354      10.954
  O      -55.949     -16.306      11.247
  C      -55.734     -18.564      10.380
  O      -56.924     -18.879      11.085
  C      -55.960     -18.103       8.936
  N      -56.209     -19.205       8.005
  C      -57.283     -19.085       7.129
  O      -58.044     -18.119       7.105
  N      -57.477     -20.144       6.279
  C      -56.766     -21.309       6.266
  O      -56.996     -22.233       5.496
  C      -55.675     -21.398       7.248
  C      -55.445     -20.357       8.050
  O      -50.605     -18.880      11.292
  O      -51.337     -21.019       9.993
  H      -50.248     -17.987      11.142
  H      -57.396     -19.571      10.588
  H      -58.228     -20.063       5.608
  H      -55.097     -22.313       7.280
  H      -54.648     -20.399       8.783
  H      -56.794     -17.392       8.895
  H      -55.071     -19.436      10.424
  H      -54.421     -17.582      11.843
  H      -54.159     -15.784       9.715
  H      -52.163     -16.945       8.961
  H      -52.199     -16.986      10.730
  P      -56.419     -16.113      12.775
  C      -58.261     -17.963      12.572
  O      -57.116     -17.479      13.237
  O      -57.670     -15.128      12.563
  O      -55.382     -15.544      13.686
  H      -58.275     -15.431      11.867
  H      -58.376     -19.027      12.797
  H      -58.175     -17.844      11.489
  H      -59.147     -17.430      12.931
  H      -49.634     -19.014       6.902
  H      -51.335     -19.325       7.152
  H      -50.153     -20.545       7.563

 3  4  5  6  7  8  9  10  11  12  13  24  28  29  30  31  32 0
 6-311+G(2d,p)
 ****
 33  34 0
 6-311+G(2d,p)
 ****
 1  2  14  15  16  17  18  19  20  21  22  23  25  26  27 0
 3-21G
 ****
 35  36  37  38  39  40  41  42  43  44  45 0
 3-21G
 ****


