%nproc=1
%NoSave
%Mem=1900MB
#P OB98/GEN NMR

erre ene a

0 1
  C      -71.077    -579.727    -253.463
  O      -71.080    -580.119    -254.824
  H      -71.889    -579.020    -253.297
  H      -70.131    -579.239    -253.217
  H      -71.227    -580.596    -252.816
  P      -70.008    -581.232    -255.260
  C      -71.925    -582.980    -255.331
  O      -70.634    -582.651    -254.840
  C      -72.499    -584.186    -254.593
  O      -72.642    -583.855    -253.176
  C      -73.876    -584.641    -255.098
  O      -73.944    -586.068    -254.988
  C      -74.832    -584.045    -254.066
  O      -76.086    -584.718    -254.036
  C      -73.987    -584.203    -252.800
  N      -77.430    -583.933    -249.139
  C      -77.159    -584.938    -250.045
  N      -77.921    -586.054    -249.959
  N      -76.224    -584.870    -250.951
  C      -75.514    -583.713    -250.897
  C      -75.682    -582.640    -250.054
  C      -76.746    -582.723    -249.070
  O      -77.041    -581.854    -248.259
  N      -74.781    -581.646    -250.341
  C      -74.070    -582.122    -251.345
  N      -74.473    -583.373    -251.714
  O      -68.825    -581.015    -254.202
  O      -69.526    -581.137    -256.668
  H      -76.451    -584.708    -254.940
  H      -68.146    -580.414    -254.572
  H      -78.175    -584.036    -248.472
  H      -73.246    -581.596    -251.838
  H      -73.978    -585.230    -252.428
  H      -75.010    -582.982    -254.290
  H      -78.633    -586.193    -249.258
  H      -74.112    -584.336    -256.126
  H      -77.711    -586.822    -250.591
  H      -71.767    -585.004    -254.650
  H      -71.848    -583.213    -256.398
  H      -72.582    -582.115    -255.209
  P      -73.748    -586.930    -256.325
  C      -71.517    -588.029    -255.556
  O      -72.184    -587.224    -256.513
  O      -74.061    -585.875    -257.485
  O      -74.649    -588.132    -256.418
  H      -74.401    -586.330    -258.273
  H      -70.487    -588.126    -255.828
  H      -71.971    -588.998    -255.526
  H      -71.590    -587.571    -254.592

 6  7  8  9  10  11  12  13  14  15  26  29  33  34 0
 6-311+G(2d,p)
 ****
 36  38  39  40  41 0
 6-311+G(2d,p)
 ****
 1  2  3  4  5  16  17  18  19  20  21  22  23  24  25 0
 3-21G
 ****
 27  28  30  31  32  35  37  42  43  44  45  46  47 0
 3-21G
 ****
 48  49 0
 3-21G
 ****


