%nproc=1
%NoSave
%Mem=1900MB
#P OB98/GEN NMR

erre ene a

0 1
  C     -105.053    -444.705    -889.340
  O     -103.777    -445.291    -889.510
  H     -104.968    -443.625    -889.500
  H     -105.422    -444.878    -888.330
  H     -105.762    -445.118    -890.070
  P     -103.677    -446.872    -889.270
  C     -102.450    -448.823    -890.490
  O     -102.896    -447.467    -890.540
  C     -101.562    -449.133    -891.690
  O     -102.337    -449.154    -892.920
  C     -100.414    -448.148    -891.910
  O      -99.322    -448.440    -891.060
  C     -100.116    -448.361    -893.380
  O      -99.287    -449.519    -893.570
  C     -101.518    -448.581    -893.970
  N     -103.230    -446.259    -898.130
  C     -102.722    -447.526    -897.960
  N     -102.571    -448.285    -899.090
  N     -102.334    -448.026    -896.820
  C     -102.495    -447.157    -895.780
  C     -103.018    -445.885    -895.810
  C     -103.458    -445.366    -897.090
  O     -103.990    -444.271    -897.290
  N     -103.051    -445.317    -894.560
  C     -102.497    -446.240    -893.780
  N     -102.147    -447.375    -894.470
  O     -105.187    -447.382    -889.500
  O     -103.154    -447.298    -887.940
  H      -98.955    -449.535    -894.500
  H     -105.350    -448.165    -888.950
  H     -103.512    -445.947    -899.030
  H     -102.357    -446.153    -892.710
  H     -101.509    -449.291    -894.800
  H      -99.578    -447.527    -893.810
  H     -102.526    -447.856    -900.000
  H     -100.770    -447.108    -891.750
  H     -102.164    -449.199    -898.990
  H     -101.160    -450.147    -891.540
  H     -103.333    -449.479    -890.510
  H     -101.903    -448.980    -889.560
  P      -97.982    -447.555    -891.220
  C      -96.053    -446.924    -889.590
  O      -97.426    -447.311    -889.740
  O      -98.553    -446.105    -891.640
  O      -96.993    -448.069    -892.220
  H      -97.844    -445.576    -892.030
  H      -95.829    -446.799    -888.551
  H      -95.884    -446.002    -890.105
  H      -95.421    -447.683    -890.002

 6  7  8  9  10  11  12  13  14  15  26  29  33  34 0
 6-311+G(2d,p)
 ****
 36  38  39  40  41 0
 6-311+G(2d,p)
 ****
 1  2  3  4  5  16  17  18  19  20  21  22  23  24  25 0
 3-21G
 ****
 27  28  30  31  32  35  37  42  43  44  45  46  47 0
 3-21G
 ****
 48  49 0
 3-21G
 ****


