%nproc=1
%NoSave
%Mem=1900MB
#P OB98/GEN NMR

erre ene a

0 1
  C       99.816     135.419      76.493
  O      100.151     136.341      77.528
  P      101.608     136.502      78.162
  C      103.652     136.105      76.570
  O      102.608     136.965      77.003
  C      104.537     136.732      75.480
  O      103.744     136.972      74.289
  C      105.061     138.097      75.933
  O      106.212     138.180      76.750
  C      105.149     138.918      74.654
  O      106.449     138.880      74.064
  C      104.125     138.249      73.735
  N      101.415     141.088      70.453
  C      102.636     140.470      70.272
  N      103.242     140.671      69.080
  N      103.218     139.736      71.180
  C      102.548     139.688      72.352
  C      101.343     140.275      72.661
  C      100.676     141.038      71.628
  O       99.587     141.596      71.733
  N      100.980     140.026      73.961
  C      101.976     139.313      74.445
  N      102.952     139.076      73.503
  O      102.057     135.383      79.038
  O      101.464     137.817      79.087
  H      106.720     137.948      73.996
  H      102.062     137.687      79.851
  H      101.000     141.622      69.711
  H      102.040     138.941      75.460
  H      104.556     138.041      72.748
  H      104.933     139.975      74.861
  H      102.903     141.320      68.387
  H      104.265     138.564      76.525
  H      104.226     140.403      69.023
  H      105.330     136.043      75.178
  H      103.178     135.193      76.198
  H      104.269     135.811      77.419
  P      106.238     138.504      78.320
  C      106.365     137.200      80.522
  O      106.344     137.115      79.107
  O      104.743     138.975      78.641
  O      107.226     139.543      78.734
  H      104.710     139.437      79.499
  H      106.744     136.258      80.929
  H      105.349     137.365      80.893
  H      107.012     138.017      80.854
  H       98.778     135.515      76.253
  H      100.015     134.422      76.826
  H      100.404     135.629      75.624

 3  4  5  6  7  8  9  10  11  12  23  26  30  31 0
 6-311+G(2d,p)
 ****
 33  35  36  37  38 0
 6-311+G(2d,p)
 ****
 1  2  13  14  15  16  17  18  19  20  21  22  24  25 0
 3-21G
 ****
 27  28  29  32  34  39  40  41  42  43  44  45  46  47  48  49 0
 3-21G
 ****


