%nproc=1
%NoSave
%Mem=1900MB
#P OB98/GEN NMR

erre ene a

0 1
  C      276.316    -123.438     593.962
  O      277.368    -123.698     593.041
  P      277.448    -125.182     592.424
  C      278.710    -124.281     590.345
  O      278.699    -125.206     591.425
  C      280.129    -124.156     589.775
  O      280.681    -125.472     589.523
  C      280.219    -123.416     588.440
  O      280.105    -122.025     588.610
  C      281.589    -123.884     587.959
  O      282.626    -123.145     588.633
  C      281.622    -125.351     588.426
  N      283.249    -127.889     584.278
  C      283.877    -127.005     585.101
  N      283.371    -126.358     586.172
  C      282.082    -126.701     586.365
  C      281.313    -127.564     585.601
  C      281.951    -128.172     584.522
  N      281.314    -129.068     583.678
  N      280.034    -127.654     586.094
  C      280.027    -126.860     587.146
  N      281.247    -126.274     587.367
  O      276.185    -125.236     591.448
  O      277.419    -126.288     593.432
  H      282.453    -123.213     589.600
  H      275.794    -126.138     591.424
  H      284.905    -126.801     584.869
  H      279.175    -126.692     587.796
  H      282.603    -125.663     588.794
  H      281.731    -123.759     586.885
  H      279.454    -123.785     587.750
  H      280.759    -123.672     590.524
  H      278.398    -123.296     590.692
  H      281.803    -129.357     582.846
  H      280.315    -129.190     583.765
  H      278.013    -124.622     589.572
  P      279.193    -121.220     587.557
  C      278.847    -119.412     589.365
  O      279.296    -119.704     588.049
  O      277.712    -121.644     588.028
  O      279.522    -121.477     586.131
  H      277.591    -121.541     588.982
  H      279.018    -118.378     589.579
  H      279.389    -120.034     590.086
  H      277.767    -119.631     589.442
  H      276.376    -122.423     594.294
  H      276.407    -124.094     594.802
  H      275.374    -123.601     593.482

 3  4  5  6  7  8  9  10  11  12  22  25  29  30  31  32 0
 6-311+G(2d,p)
 ****
 33  36  37 0
 6-311+G(2d,p)
 ****
 1  2  13  14  15  16  17  18  19  20  21  23  24  26 0
 3-21G
 ****
 27  28  34  35  38  39  40  41  42  43  44  45  46  47  48 0
 3-21G
 ****


