%nproc=1
%NoSave
%Mem=1900MB
#P OB98/GEN NMR

erre ene a

0 1
  C      675.001    -125.720    -891.991
  O      676.399    -125.477    -892.001
  H      674.477    -124.759    -891.921
  H      674.726    -126.334    -891.141
  H      674.707    -126.224    -892.931
  P      677.344    -126.771    -892.151
  C      677.257    -127.326    -894.701
  O      676.765    -127.602    -893.401
  C      676.705    -128.328    -895.711
  O      677.057    -129.680    -895.271
  C      675.167    -128.293    -895.841
  O      674.803    -128.678    -897.191
  C      674.746    -129.400    -894.861
  O      673.418    -129.777    -895.101
  C      675.821    -130.427    -895.161
  N      675.173    -135.385    -894.161
  C      675.086    -134.684    -895.311
  N      675.299    -133.358    -895.511
  C      675.641    -132.769    -894.341
  C      675.759    -133.348    -893.091
  C      675.501    -134.749    -893.031
  N      675.579    -135.459    -891.851
  N      676.132    -132.428    -892.131
  C      676.201    -131.265    -892.821
  N      675.916    -131.449    -894.141
  O      676.939    -127.664    -890.891
  O      678.818    -126.493    -892.191
  H      672.802    -129.059    -894.851
  H      677.542    -127.455    -890.131
  H      674.833    -135.259    -896.201
  H      676.469    -130.309    -892.381
  H      675.653    -130.942    -896.131
  H      674.812    -129.038    -893.811
  H      674.726    -127.306    -895.611
  H      677.177    -128.166    -896.701
  H      678.362    -127.371    -894.691
  H      676.957    -126.299    -894.991
  H      675.368    -136.444    -891.891
  H      675.793    -134.978    -890.981
  P      673.868    -127.729    -898.041
  C      675.855    -126.345    -899.041
  O      674.609    -126.318    -898.351
  O      672.763    -127.259    -896.951
  O      673.197    -128.356    -899.221
  H      671.867    -127.326    -897.331
  H      676.214    -125.345    -899.169
  H      675.722    -126.801    -900.000
  H      676.565    -126.909    -898.473

 6  7  8  9  10  11  12  13  14  15  25  28  32  33  34  35 0
 6-311+G(2d,p)
 ****
 36  37  40 0
 6-311+G(2d,p)
 ****
 1  2  3  4  5  16  17  18  19  20  21  22  23  24 0
 3-21G
 ****
 26  27  29  30  31  38  39 41  42  43  44  45  46  47  48 0
 3-21G
 ****


