%nproc=1
%NoSave
%Mem=1900MB
#P OB98/GEN NMR

erre ene a

0 1
  C     -150.936    -242.873    -334.092
  O     -152.230    -242.678    -333.530
  P     -153.352    -242.008    -334.466
  C     -154.116    -240.553    -332.457
  O     -153.669    -240.579    -333.806
  C     -153.526    -239.355    -331.718
  O     -152.086    -239.390    -331.777
  C     -153.926    -238.000    -332.289
  O     -155.207    -237.581    -331.841
  C     -152.844    -237.106    -331.711
  O     -153.151    -236.796    -330.338
  C     -151.606    -238.018    -331.778
  N     -146.938    -236.811    -333.481
  C     -147.451    -236.883    -332.236
  N     -148.710    -237.201    -331.859
  C     -149.487    -237.422    -332.940
  C     -149.108    -237.345    -334.271
  C     -147.761    -237.037    -334.536
  N     -147.231    -236.991    -335.810
  N     -150.174    -237.639    -335.093
  C     -151.172    -237.896    -334.274
  N     -150.801    -237.784    -332.962
  O     -154.661    -242.870    -334.135
  O     -153.034    -242.005    -335.925
  H     -153.933    -236.209    -330.345
  H     -155.296    -242.815    -334.875
  H     -146.760    -236.664    -331.429
  H     -152.177    -238.164    -334.586
  H     -150.956    -237.902    -330.904
  H     -152.743    -236.155    -332.244
  H     -153.855    -237.995    -333.388
  H     -153.824    -239.425    -330.661
  H     -153.796    -241.472    -331.952
  H     -146.232    -236.945    -335.906
  H     -147.799    -237.352    -336.570
  H     -155.215    -240.510    -332.445
  P     -156.299    -237.250    -332.973
  C     -155.614    -234.769    -332.589
  O     -155.905    -235.793    -333.520
  O     -157.632    -236.996    -332.130
  O     -156.464    -238.320    -334.001
  H     -158.421    -237.185    -332.672
  H     -155.076    -233.967    -333.107
  H     -154.979    -235.140    -331.777
  H     -156.541    -234.363    -332.177
  H     -150.295    -243.324    -333.364
  H     -150.530    -241.929    -334.389
  H     -151.011    -243.513    -334.946

 3  4  5  6  7  8  9  10  11  12  22  25  29  30  31  32 0
 6-311+G(2d,p)
 ****
 33  36  37 0
 6-311+G(2d,p)
 ****
 1  2  13  14  15  16  17  18  19  20  21  23  24  26 0
 3-21G
 ****
 27  28  34  35  38  39  40  41  42  43  44  45  46  47  48 0
 3-21G
 ****


