%nproc=1
%NoSave
%Mem=1900MB
#P OB98/GEN NMR

erre ene a

0 1
  C      701.413    -898.020    -135.778
  O      702.637    -897.310    -135.804
  H      701.587    -899.080    -135.621
  H      700.807    -897.630    -134.947
  H      700.864    -897.860    -136.707
  P      703.680    -897.750    -136.954
  C      703.679    -895.520    -138.291
  O      703.298    -896.900    -138.267
  C      702.819    -894.750    -139.279
  O      702.921    -895.420    -140.579
  C      701.325    -894.700    -138.926
  O      700.846    -893.350    -138.990
  C      700.615    -895.510    -139.997
  O      699.351    -895.010    -140.330
  C      701.610    -895.420    -141.172
  N      699.471    -896.860    -145.559
  C      699.779    -895.640    -145.079
  N      700.427    -895.320    -143.931
  C      700.822    -896.440    -143.282
  C      700.609    -897.760    -143.669
  C      699.883    -897.940    -144.870
  N      699.529    -899.190    -145.325
  N      701.157    -898.650    -142.757
  C      701.643    -897.850    -141.797
  N      701.465    -896.520    -142.079
  O      703.201    -899.240    -137.320
  O      705.104    -897.710    -136.537
  H      698.857    -894.840    -139.503
  H      703.941    -899.860    -137.143
  H      699.438    -894.800    -145.687
  H      702.105    -898.200    -140.885
  H      701.500    -894.480    -141.733
  H      700.522    -896.540    -139.626
  H      701.123    -895.120    -137.911
  H      703.227    -893.760    -139.390
  H      704.743    -895.440    -138.589
  H      698.900    -899.250    -146.137
  H      699.721    -900.000    -144.760
  H      703.557    -895.110    -137.283
  P      700.795    -892.540    -137.606
  C      701.452    -890.350    -138.843
  O      701.722    -891.220    -137.739
  O      701.619    -893.450    -136.581
  O      699.400    -892.290    -137.088
  H      701.073    -893.710    -135.826
  H      702.128    -889.521    -138.818
  H      700.446    -889.992    -138.777
  H      701.580    -890.887    -139.760

 6  7  8  9  10  11  12  13  14  15  25  28  32  33  34  35 0
 6-311+G(2d,p)
 ****
 36  39  40 0
 6-311+G(2d,p)
 ****
 1  2  3  4  5  16  17  18  19  20  21  22  23  24 0
 3-21G
 ****
 26  27  29  30  31  37  38  41  42  43  44  45  46  47  48 0
 3-21G
 ****


