%nproc=1
%NoSave
%Mem=1900MB
#P OB98/GEN NMR

erre ene a

0 1
  C     -177.260     201.905    -216.877
  O     -175.983     202.241    -217.386
  H     -177.477     200.866    -217.143
  H     -178.036     202.548    -217.310
  H     -177.268     201.995    -215.789
  P     -175.540     203.786    -217.352
  C     -173.030     203.405    -216.855
  O     -174.002     203.800    -217.825
  C     -171.702     203.050    -217.533
  O     -171.843     201.833    -218.298
  C     -171.220     204.096    -218.528
  O     -170.804     205.312    -217.932
  C     -170.245     203.304    -219.383
  O     -168.924     203.253    -218.846
  C     -170.881     201.888    -219.369
  N     -171.464     201.530    -220.653
  C     -170.751     200.598    -221.406
  O     -169.680     200.102    -221.046
  N     -171.290     200.274    -222.621
  C     -172.424     200.822    -223.163
  O     -172.838     200.521    -224.284
  C     -173.117     201.816    -222.333
  C     -172.610     202.123    -221.132
  O     -175.783     204.507    -216.054
  O     -176.312     204.430    -218.596
  H     -168.568     204.162    -218.874
  H     -176.336     205.416    -218.530
  H     -170.803     199.596    -223.181
  H     -174.014     202.280    -222.732
  H     -173.103     202.858    -220.497
  H     -170.109     201.134    -219.132
  H     -170.158     203.729    -220.391
  H     -172.066     204.353    -219.177
  H     -170.954     202.873    -216.749
  H     -173.418     202.521    -216.340
  H     -172.883     204.210    -216.129
  P     -170.677     206.684    -218.738
  C     -171.443     208.193    -216.767
  O     -170.406     207.868    -217.680
  O     -171.670     206.917    -219.837
  O     -169.230     206.513    -219.435
  H     -169.266     206.951    -220.310
  H     -171.121     208.991    -216.131
  H     -171.676     207.335    -216.172
  H     -172.313     208.498    -217.310

 6  7  8  9  10  11  12  13  14  15  16  26  31  32  33  34  35 0
 6-311+G(2d,p)
 ****
 36  37 0
 6-311+G(2d,p)
 ****
 1  2  3  4  5  17  18  19  20  21  22  23  24  25 0
 3-21G
 ****
 27  28  29  30  38  39  40  41  42  43  44  45 0
 3-21G
 ****


