%nproc=1
%NoSave
%Mem=1900MB
#P OB98/GEN NMR

erre ene a

0 1
  C      960.523     349.270     596.315
  O      960.740     350.581     595.836
  H      959.508     349.175     596.716
  H      960.641     348.573     595.481
  H      961.252     349.018     597.088
  P      960.509     351.774     596.891
  C      957.948     351.540     597.179
  O      959.019     352.305     596.653
  C      956.739     352.441     597.465
  O      957.027     353.332     598.550
  C      956.335     353.333     596.295
  O      955.593     352.608     595.302
  C      955.479     354.355     597.014
  O      954.150     353.816     597.223
  C      956.202     354.523     598.352
  N      957.175     358.885     600.876
  C      956.245     357.911     601.076
  N      956.043     356.798     600.358
  C      956.924     356.698     599.355
  C      957.918     357.601     599.030
  C      958.033     358.748     599.843
  N      958.957     359.755     599.635
  N      958.647     357.173     597.941
  C      958.095     356.025     597.601
  N      957.051     355.693     598.420
  O      961.425     352.951     596.320
  O      960.857     351.443     598.303
  H      953.763     353.670     596.342
  H      961.811     353.452     597.075
  H      955.583     358.067     601.917
  H      958.432     355.394     596.783
  H      955.495     354.547     599.196
  H      955.348     355.283     596.454
  H      957.218     353.835     595.841
  H      955.907     351.790     597.773
  H      958.264     351.063     598.120
  H      959.115     360.434     600.353
  H      959.610     359.633     598.862
  H      957.682     350.751     596.467
  P      956.195     352.548     593.819
  C      955.352     354.903     593.111
  O      955.246     353.493     592.924
  O      955.816     351.072     593.351
  O      957.662     352.813     593.706
  H      956.447     350.774     592.636
  H      954.669     355.402     592.456
  H      956.351     355.218     592.891
  H      955.116     355.147     594.126

 6  7  8  9  10  11  12  13  14  15  25  28  32  33  34  35 0
 6-311+G(2d,p)
 ****
 36  39  40 0
 6-311+G(2d,p)
 ****
 1  2  3  4  5  16  17  18  19  20  21  22  23  24 0
 3-21G
 ****
 26  27  29  30  31  37  38  41  42  43  44  45  46  47  48 0
 3-21G
 ****


