%nproc=1
%NoSave
%Mem=1900MB
#P OB98/GEN NMR

erre ene a

0 1
  C      -38.493      99.425    1287.806
  O      -39.713      99.723    1287.163
  H      -38.005     100.356    1288.093
  H      -37.844      98.883    1287.119
  H      -38.684      98.826    1288.693
  P      -40.538      98.488    1286.551
  C      -42.430      99.397    1288.107
  O      -42.064      98.880    1286.832
  C      -43.880      99.046    1288.431
  O      -44.119      97.632    1288.225
  C      -44.296      99.312    1289.890
  O      -44.561     100.675    1290.140
  C      -45.557      98.472    1289.960
  O      -46.624      99.133    1289.252
  C      -45.110      97.189    1289.207
  N      -44.537      96.166    1290.099
  C      -44.445      94.870    1289.578
  O      -44.838      94.620    1288.443
  N      -43.951      93.878    1290.397
  C      -43.551      94.156    1291.596
  N      -43.076      93.121    1292.348
  C      -43.601      95.519    1292.180
  C      -44.108      96.464    1291.381
  O      -40.270      97.309    1287.610
  O      -40.231      98.131    1285.136
  H      -46.802      99.957    1289.714
  H      -40.859      96.531    1287.404
  H      -43.270      95.696    1293.197
  H      -44.174      97.485    1291.735
  H      -45.939      96.750    1288.637
  H      -45.908      98.288    1290.970
  H      -43.558      98.908    1290.593
  H      -44.518      99.574    1287.732
  H      -43.106      92.195    1291.931
  H      -42.310     100.497    1288.070
  H      -42.879      93.217    1293.336
  H      -41.767      98.988    1288.879
  P      -44.159     101.239    1291.597
  C      -44.010     103.601    1290.534
  O      -44.510     102.802    1291.619
  O      -42.544     101.208    1291.593
  O      -44.709     100.445    1292.753
  H      -42.195     100.989    1292.492
  H      -44.314     104.618    1290.670
  H      -44.402     103.232    1289.609
  H      -42.942     103.548    1290.515

 6  7  8  9  10  11  12  13  14  15  16  26  30  31  32  33  35 0
 6-311+G(2d,p)
 ****
 37  38 0
 6-311+G(2d,p)
 ****
 1  2  3  4  5  17  18  19  20  21  22  23  24  25 0
 3-21G
 ****
 27  28  29  34  36  39  40  41  42  43  44  45  46 0
 3-21G
 ****


