%nproc=1
%NoSave
%Mem=1900MB
#P OB98/GEN NMR

erre ene a

0 1
  C     -895.400    -152.475    2185.543
  O     -896.760    -152.128    2185.805
  P     -897.400    -152.103    2187.273
  C     -897.540    -149.537    2187.761
  O     -896.870    -150.770    2188.038
  C     -896.730    -148.664    2186.804
  O     -896.670    -149.290    2185.496
  C     -897.320    -147.283    2186.531
  O     -897.140    -146.403    2187.624
  C     -896.540    -146.882    2185.273
  O     -895.260    -146.312    2185.615
  C     -896.350    -148.223    2184.551
  N     -897.150    -148.343    2183.337
  C     -896.800    -147.492    2182.292
  O     -895.910    -146.625    2182.416
  N     -897.470    -147.615    2181.094
  C     -898.460    -148.435    2181.014
  N     -899.100    -148.546    2179.782
  C     -898.960    -149.265    2182.142
  C     -898.250    -149.167    2183.245
  O     -897.180    -153.346    2188.055
  O     -898.970    -151.814    2187.058
  H     -899.470    -152.182    2187.818
  H     -894.770    -146.203    2184.769
  H     -899.810    -149.902    2182.032
  H     -898.540    -149.743    2184.150
  H     -895.300    -148.371    2184.291
  H     -897.080    -146.111    2184.690
  H     -898.390    -147.379    2186.288
  H     -895.700    -148.582    2187.193
  H     -898.730    -147.966    2179.036
  H     -897.680    -149.001    2188.700
  H     -899.870    -149.171    2179.625
  H     -898.540    -149.763    2187.336
  P     -897.940    -146.749    2188.989
  C     -895.830    -147.364    2190.369
  O     -897.050    -147.818    2189.832
  O     -899.180    -147.658    2188.473
  O     -898.400    -145.577    2189.767
  H     -900.000    -147.420    2188.957
  H     -895.610    -147.963    2191.249
  H     -895.870    -146.304    2190.664
  H     -895.040    -147.491    2189.660
  H     -895.214    -152.418    2184.491
  H     -895.214    -153.472    2185.885
  H     -894.753    -151.795    2186.057

 3  4  5  6  7  8  9  10  11  12  13  24  27  28  29  30  32 0
 6-311+G(2d,p)
 ****
 34  35 0
 6-311+G(2d,p)
 ****
 1  2  14  15  16  17  18  19  20  21  22  23  25  26 0
 3-21G
 ****
 31  33  36  37  38  39  40  41  42  43  44  45  46 0
 3-21G
 ****


