%nproc=1
%NoSave
%Mem=1900MB
#P OB98/GEN NMR

erre ene a

0 1
  C      -24.673    -154.226     181.160
  O      -26.034    -154.079     180.714
  P      -27.215    -154.054     181.806
  C      -28.552    -151.951     182.619
  O      -27.289    -152.583     182.443
  C      -28.413    -150.734     183.534
  O      -28.094    -151.145     184.882
  C      -27.296    -149.774     183.138
  O      -27.663    -148.967     182.029
  C      -27.109    -148.984     184.430
  O      -28.078    -147.929     184.533
  C      -27.362    -150.061     185.502
  N      -26.130    -150.540     186.126
  C      -25.632    -149.774     187.177
  O      -26.147    -148.723     187.550
  N      -24.494    -150.251     187.775
  C      -23.783    -151.352     187.380
  O      -22.755    -151.714     187.943
  C      -24.312    -152.070     186.215
  C      -25.436    -151.635     185.646
  O      -26.577    -154.900     183.009
  O      -28.513    -154.647     181.370
  H      -28.113    -147.494     183.659
  H      -27.289    -155.329     183.520
  H      -24.134    -149.730     188.556
  H      -23.764    -152.934     185.859
  H      -25.846    -152.156     184.779
  H      -28.019    -149.665     186.286
  H      -26.118    -148.519     184.494
  H      -26.380    -150.339     182.922
  H      -29.382    -150.211     183.557
  H      -29.247    -152.665     183.073
  H      -28.945    -151.658     181.638
  P      -27.222    -149.493     180.578
  C      -28.568    -151.606     179.820
  O      -28.528    -150.204     179.971
  O      -26.239    -150.692     180.979
  O      -26.593    -148.433     179.733
  H      -26.524    -151.143     181.795
  H      -28.001    -152.116     180.605
  H      -28.152    -151.872     178.840
  H      -29.607    -151.939     179.867
  H      -24.018    -154.223     180.314
  H      -24.569    -155.150     181.689
  H      -24.421    -153.414     181.809

 3  4  5  6  7  8  9  10  11  12  13  23  28  29  30  31  32 0
 6-311+G(2d,p)
 ****
 33  34 0
 6-311+G(2d,p)
 ****
 1  2  14  15  16  17  18  19  20  21  22  24  25  26 0
 3-21G
 ****
 27  35  36  37  38  39  40  41  42  43  44  45 0
 3-21G
 ****


