%nproc=1
%NoSave
%Mem=1900MB
#P OB98/GEN NMR

erre ene a

0 1
  C     -189.885    -144.602    -317.046
  O     -189.379    -143.422    -317.648
  P     -187.823    -143.366    -318.034
  C     -185.678    -142.421    -316.844
  O     -187.075    -142.663    -316.802
  C     -185.329    -141.195    -315.992
  O     -186.008    -140.029    -316.545
  C     -185.732    -141.308    -314.517
  O     -184.731    -140.623    -313.751
  C     -187.047    -140.551    -314.466
  O     -187.370    -140.095    -313.164
  C     -186.769    -139.426    -315.478
  N     -187.987    -138.804    -316.003
  C     -188.217    -137.470    -315.694
  O     -187.475    -136.790    -314.982
  N     -189.372    -136.930    -316.204
  C     -190.322    -137.600    -316.925
  O     -191.341    -137.068    -317.346
  C     -190.044    -139.017    -317.186
  C     -188.905    -139.544    -316.730
  O     -187.830    -142.251    -319.179
  O     -187.257    -144.686    -318.440
  H     -188.474    -141.543    -319.017
  H     -187.392    -140.867    -312.570
  H     -189.543    -135.952    -316.020
  H     -190.780    -139.582    -317.739
  H     -188.676    -140.589    -316.907
  H     -186.131    -138.660    -315.018
  H     -187.859    -141.207    -314.811
  H     -185.816    -142.344    -314.184
  H     -184.249    -141.013    -316.082
  H     -185.373    -142.239    -317.880
  H     -185.148    -143.308    -316.487
  P     -184.755    -140.791    -312.149
  C     -185.345    -139.223    -310.137
  O     -185.348    -139.438    -311.530
  O     -183.185    -140.680    -311.825
  O     -185.355    -142.074    -311.660
  H     -182.767    -139.921    -312.265
  H     -185.461    -138.147    -309.946
  H     -184.413    -139.557    -309.680
  H     -186.190    -139.751    -309.681
  H     -190.930    -144.483    -316.851
  H     -189.369    -144.783    -316.126
  H     -189.738    -145.431    -317.707

 3  4  5  6  7  8  9  10  11  12  13  24  28  29  30  31  32 0
 6-311+G(2d,p)
 ****
 33  34 0
 6-311+G(2d,p)
 ****
 1  2  14  15  16  17  18  19  20  21  22  23  25  26  27 0
 3-21G
 ****
 35  36  37  38  39  40  41  42  43  44  45 0
 3-21G
 ****


