%nproc=1
%NoSave
%Mem=1900MB
#P OB98/GEN NMR

erre ene a

0 1
  C     -177.342     293.657     -76.712
  O     -178.446     292.767     -76.689
  P     -178.563     291.585     -77.760
  C     -180.774     292.270     -78.888
  O     -180.137     291.356     -78.012
  C     -182.151     292.667     -78.354
  O     -183.062     291.554     -78.543
  C     -182.150     293.013     -76.870
  O     -183.083     294.073     -76.639
  C     -182.674     291.760     -76.195
  O     -183.291     292.067     -74.927
  C     -183.631     291.214     -77.260
  N     -186.430     287.330     -75.411
  C     -186.583     288.666     -75.319
  N     -185.788     289.641     -75.811
  C     -184.762     289.111     -76.513
  C     -184.488     287.766     -76.700
  C     -185.375     286.842     -76.106
  N     -185.226     285.480     -76.213
  N     -183.333     287.601     -77.448
  C     -182.942     288.826     -77.725
  N     -183.782     289.778     -77.193
  O     -177.802     290.349     -77.432
  O     -178.072     292.237     -79.140
  H     -183.988     292.734     -75.095
  H     -177.558     291.594     -79.659
  H     -187.459     289.005     -74.766
  H     -182.064     289.085     -78.299
  H     -184.622     291.673     -77.194
  H     -181.846     291.069     -76.000
  H     -181.161     293.301     -76.501
  H     -182.530     293.507     -78.954
  H     -180.890     291.793     -79.870
  H     -185.977     284.903     -75.861
  H     -184.543     285.124     -76.872
  H     -180.138     293.155     -79.018
  P     -182.488     295.380     -75.905
  C     -184.275     295.565     -74.011
  O     -183.769     296.079     -75.222
  O     -181.669     296.225     -76.830
  O     -181.674     294.720     -74.697
  H     -182.026     293.840     -74.465
  H     -185.158     296.145     -73.725
  H     -183.520     295.668     -73.216
  H     -184.553     294.513     -74.121
  H     -177.444     294.372     -75.923
  H     -177.313     294.166     -77.653
  H     -176.436     293.104     -76.578

 3  4  5  6  7  8  9  10  11  12  22  25  29  30  31  32 0
 6-311+G(2d,p)
 ****
 33  36  37 0
 6-311+G(2d,p)
 ****
 1  2  13  14  15  16  17  18  19  20  21  23  24  26 0
 3-21G
 ****
 27  28  34  35  38  39  40  41  42  43  44  45  46  47  48 0
 3-21G
 ****


