%nproc=1
%NoSave
%Mem=1900MB
#P OB98/GEN NMR

erre ene a

0 1
  C       13.326       1.320     -83.781
  O       13.426       0.879     -82.441
  H       12.351       1.796     -83.919
  H       13.406       0.480     -84.474
  H       14.107       2.055     -83.994
  P       14.697       0.000     -82.009
  C       13.286      -2.156     -82.050
  O       14.431      -1.486     -82.559
  C       13.268      -3.618     -82.501
  O       13.170      -3.652     -83.952
  C       14.519      -4.406     -82.091
  O       14.123      -5.737     -81.749
  C       15.343      -4.402     -83.363
  O       16.260      -5.480     -83.391
  C       14.268      -4.436     -84.454
  N       14.782      -3.915     -85.720
  C       15.788      -4.664     -86.342
  O       16.187      -5.713     -85.830
  N       16.364      -4.181     -87.490
  C       16.011      -3.021     -87.952
  N       16.649      -2.583     -89.070
  C       14.972      -2.182     -87.312
  C       14.403      -2.685     -86.216
  O       15.090       0.072     -80.570
  O       15.867       0.535     -82.965
  H       16.959      -5.331     -82.718
  H       16.345       1.268     -82.530
  H       14.717      -1.222     -87.732
  H       13.640      -2.135     -85.673
  H       13.908      -5.460     -84.615
  H       15.920      -3.469     -83.426
  H       15.056      -3.948     -81.253
  H       12.360      -4.093     -82.109
  H       17.370      -3.182     -89.456
  H       12.395      -1.641     -82.433
  H       16.487      -1.680     -89.495
  H       13.282      -2.102     -80.955
  P       13.995      -6.181     -80.213
  C       16.396      -7.058     -80.051
  O       15.449      -6.133     -79.525
  O       13.250      -7.463     -79.993
  O       13.219      -4.957     -79.525
  H       12.687      -5.294     -78.775
  H       17.326      -6.950     -79.533
  H       16.544      -6.863     -81.093
  H       16.030      -8.055     -79.923

 6  7  8  9  10  11  12  13  14  15  16  26  30  31  32  33  35 0
 6-311+G(2d,p)
 ****
 37  38 0
 6-311+G(2d,p)
 ****
 1  2  3  4  5  17  18  19  20  21  22  23  24  25 0
 3-21G
 ****
 27  28  29  34  36  39  40  41  42  43  44  45  46 0
 3-21G
 ****


