%nproc=1
%NoSave
%Mem=1900MB
#P OB98/GEN NMR

erre ene a

0 1
  C      -40.519    -181.294     217.589
  O      -40.628    -181.920     218.850
  H      -41.258    -181.739     216.911
  H      -39.523    -181.458     217.171
  H      -40.715    -180.220     217.665
  P      -39.799    -181.318     220.086
  C      -38.307    -183.351     220.626
  O      -39.415    -182.557     221.032
  C      -37.920    -184.317     221.749
  O      -36.776    -185.106     221.352
  C      -37.518    -183.624     223.050
  O      -38.657    -183.144     223.743
  C      -36.769    -184.752     223.750
  O      -37.684    -185.672     224.361
  C      -36.032    -185.416     222.554
  N      -34.637    -184.995     222.431
  C      -33.804    -185.292     223.506
  O      -34.203    -185.843     224.535
  N      -32.490    -184.921     223.367
  C      -31.965    -184.217     222.318
  O      -30.787    -183.863     222.269
  C      -32.903    -183.900     221.234
  C      -34.171    -184.296     221.332
  O      -40.426    -180.163     220.792
  O      -38.393    -180.917     219.433
  H      -38.042    -185.231     225.157
  H      -38.370    -179.955     219.264
  H      -31.875    -185.121     224.138
  H      -32.518    -183.336     220.382
  H      -34.876    -184.068     220.544
  H      -36.052    -186.513     222.661
  H      -36.108    -184.393     224.535
  H      -36.814    -182.807     222.848
  H      -38.766    -185.001     221.916
  H      -37.462    -182.691     220.407
  H      -38.575    -183.900     219.719
  P      -38.998    -181.580     223.772
  C      -36.986    -180.721     225.106
  O      -38.382    -180.974     225.132
  O      -40.434    -181.235     223.532
  O      -38.056    -180.958     222.636
  H      -38.594    -180.720     221.850
  H      -36.678    -180.323     226.050
  H      -36.766    -180.015     224.332
  H      -36.462    -181.634     224.916

 6  7  8  9  10  11  12  13  14  15  16  26  31  32  33  34  35 0
 6-311+G(2d,p)
 ****
 36  37 0
 6-311+G(2d,p)
 ****
 1  2  3  4  5  17  18  19  20  21  22  23  24  25 0
 3-21G
 ****
 27  28  29  30  38  39  40  41  42  43  44  45 0
 3-21G
 ****


