%nproc=1
%NoSave
%Mem=1900MB
#P OB98/GEN NMR

erre ene a

0 1
  C      -63.524     -79.092     -94.203
  O      -62.618     -79.223     -95.281
  H      -63.415     -78.092     -93.774
  H      -63.308     -79.831     -93.426
  H      -64.553     -79.210     -94.556
  P      -62.524     -80.633     -96.033
  C      -60.373     -81.242     -94.728
  O      -61.708     -81.610     -95.060
  C      -59.449     -82.459     -94.787
  O      -59.763     -83.377     -93.722
  C      -59.564     -83.264     -96.077
  O      -58.916     -82.597     -97.141
  C      -58.927     -84.576     -95.642
  O      -57.494     -84.474     -95.633
  C      -59.474     -84.712     -94.199
  N      -60.657     -85.562     -94.103
  C      -60.421     -86.941     -94.043
  O      -59.270     -87.376     -94.088
  N      -61.499     -87.787     -93.955
  C      -62.701     -87.304     -93.885
  N      -63.727     -88.194     -93.794
  C      -62.990     -85.856     -93.910
  C      -61.934     -85.054     -94.031
  O      -62.015     -80.599     -97.442
  O      -64.015     -81.209     -95.958
  H      -57.161     -85.370     -95.422
  H      -64.513     -80.979     -96.768
  H      -64.007     -85.496     -93.840
  H      -62.061     -83.975     -94.058
  H      -58.704     -85.127     -93.534
  H      -59.185     -85.401     -96.305
  H      -60.617     -83.454     -96.314
  H      -58.420     -82.109     -94.631
  H      -63.475     -89.176     -93.759
  H      -60.394     -80.835     -93.711
  H      -64.675     -87.932     -93.573
  H      -60.008     -80.460     -95.405
  P      -59.417     -82.751     -98.657
  C      -57.406     -84.222     -99.297
  O      -58.819     -84.148     -99.174
  O      -59.136     -81.583     -99.541
  O      -60.977     -83.077     -98.507
  H      -61.484     -82.253     -98.301
  H      -57.129     -85.194     -99.647
  H      -56.955     -84.045     -98.343
  H      -57.069     -83.483     -99.993

 6  7  8  9  10  11  12  13  14  15  16  26  30  31  32  33  35 0
 6-311+G(2d,p)
 ****
 37  38 0
 6-311+G(2d,p)
 ****
 1  2  3  4  5  17  18  19  20  21  22  23  24  25 0
 3-21G
 ****
 27  28  29  34  36  39  40  41  42  43  44  45  46 0
 3-21G
 ****


