%nproc=1
%NoSave
%Mem=1900MB
#P OB98/GEN NMR

erre ene a

0 1
  C     -649.318     343.821      81.445
  O     -648.856     342.702      80.717
  H     -650.376     343.969      81.207
  H     -648.761     344.707      81.143
  H     -649.227     343.668      82.523
  P     -647.428     342.074      81.097
  C     -648.501     340.104      82.373
  O     -647.638     341.232      82.443
  C     -649.729     340.295      83.276
  O     -650.585     341.325      82.700
  C     -650.578     339.006      83.447
  O     -651.159     339.067      84.751
  C     -651.640     339.209      82.379
  O     -652.757     338.380      82.600
  C     -651.886     340.715      82.496
  N     -652.559     341.269      81.320
  C     -653.951     341.286      81.345
  O     -654.611     340.836      82.286
  N     -654.581     341.790      80.242
  C     -653.945     342.200      79.094
  O     -654.561     342.620      78.105
  C     -652.475     342.128      79.112
  C     -651.861     341.673      80.185
  O     -646.286     343.037      81.133
  O     -647.194     340.913      80.009
  H     -653.054     338.448      83.527
  H     -646.248     340.811      79.827
  H     -655.584     341.819      80.240
  H     -651.948     342.441      78.209
  H     -650.779     341.604      80.229
  H     -652.494     340.947      83.374
  H     -651.236     338.967      81.386
  H     -650.009     338.096      83.326
  H     -649.383     340.673      84.250
  H     -647.939     339.227      82.694
  H     -648.830     339.966      81.331
  P     -650.485     338.380      86.025
  C     -651.199     340.069      87.831
  O     -650.101     339.507      87.103
  O     -649.352     337.460      85.704
  O     -651.669     337.566      86.741
  H     -651.310     336.797      87.217
  H     -650.833     340.804      88.517
  H     -651.702     339.295      88.372
  H     -651.883     340.528      87.148

 6  7  8  9  10  11  12  13  14  15  16  26  31  32  33  34  35 0
 6-311+G(2d,p)
 ****
 36  37 0
 6-311+G(2d,p)
 ****
 1  2  3  4  5  17  18  19  20  21  22  23  24  25 0
 3-21G
 ****
 27  28  29  30  38  39  40  41  42  43  44  45 0
 3-21G
 ****


