%nproc=1
%NoSave
%Mem=1900MB
#P OB98/GEN NMR

erre ene a

0 1
  C     -331.130    -138.161    -285.467
  O     -331.198    -139.517    -285.080
  H     -331.361    -138.086    -286.531
  H     -330.118    -137.781    -285.305
  H     -331.847    -137.554    -284.907
  P     -331.179    -139.887    -283.520
  C     -328.877    -141.009    -283.863
  O     -330.203    -141.156    -283.379
  C     -328.282    -142.379    -284.195
  O     -328.044    -143.087    -282.941
  C     -329.207    -143.255    -285.061
  O     -328.397    -144.058    -285.926
  C     -329.866    -144.128    -284.012
  O     -330.412    -145.301    -284.568
  C     -328.700    -144.368    -283.051
  N     -329.163    -144.872    -281.762
  C     -328.542    -146.021    -281.281
  O     -327.650    -146.618    -281.886
  N     -329.025    -146.517    -280.105
  C     -330.120    -146.052    -279.431
  O     -330.562    -146.581    -278.424
  C     -330.772    -144.866    -280.015
  C     -330.267    -144.336    -281.136
  O     -332.511    -140.049    -282.869
  O     -330.308    -138.722    -282.850
  H     -331.101    -145.660    -283.982
  H     -330.502    -138.657    -281.897
  H     -328.578    -147.342    -279.737
  H     -331.655    -144.481    -279.521
  H     -330.731    -143.474    -281.603
  H     -327.981    -145.073    -283.480
  H     -330.680    -143.585    -283.520
  H     -329.923    -142.674    -285.650
  H     -327.307    -142.241    -284.674
  H     -328.282    -140.521    -283.081
  H     -328.882    -140.374    -284.754
  P     -328.365    -143.822    -287.517
  C     -328.418    -146.286    -288.245
  O     -327.677    -145.070    -288.260
  O     -327.821    -142.490    -287.930
  O     -329.902    -143.937    -287.961
  H     -330.118    -143.206    -288.569
  H     -327.870    -147.044    -288.764
  H     -329.361    -146.135    -288.727
  H     -328.579    -146.593    -287.233

 6  7  8  9  10  11  12  13  14  15  16  26  31  32  33  34  35 0
 6-311+G(2d,p)
 ****
 36  37 0
 6-311+G(2d,p)
 ****
 1  2  3  4  5  17  18  19  20  21  22  23  24  25 0
 3-21G
 ****
 27  28  29  30  38  39  40  41  42  43  44  45 0
 3-21G
 ****


