%nproc=1
%NoSave
%Mem=1900MB
#P OB98/GEN NMR

erre ene a

0 1
  C       -0.786    -164.375    -253.979
  O       -0.066    -164.595    -252.779
  P       -0.795    -165.176    -251.469
  C        1.378    -165.182    -250.066
  O        0.074    -164.630    -250.240
  C        2.354    -164.086    -249.624
  O        2.697    -163.262    -250.756
  C        1.792    -163.134    -248.571
  O        1.788    -163.745    -247.290
  C        2.732    -161.945    -248.737
  O        3.982    -162.197    -248.055
  C        2.968    -161.930    -250.263
  N        2.138    -160.936    -250.946
  C        2.792    -160.116    -251.872
  O        3.994    -160.241    -252.101
  N        2.049    -159.186    -252.561
  C        0.770    -159.063    -252.323
  N        0.077    -158.179    -253.088
  C        0.065    -159.879    -251.321
  C        0.793    -160.784    -250.675
  O       -1.011    -166.655    -251.477
  O       -2.141    -164.324    -251.351
  H        3.754    -162.415    -247.131
  H       -2.905    -164.716    -251.848
  H       -0.998    -159.733    -251.151
  H        0.343    -161.427    -249.936
  H        4.020    -161.730    -250.485
  H        2.323    -161.012    -248.344
  H        0.774    -162.836    -248.831
  H        3.266    -164.570    -249.259
  H        0.571    -157.773    -253.881
  H        1.716    -165.589    -251.024
  H       -0.930    -158.226    -253.177
  H        1.338    -165.986    -249.329
  P        0.640    -163.289    -246.260
  C       -0.090    -165.549    -245.185
  O        0.685    -164.368    -245.062
  O       -0.713    -163.626    -247.046
  O        0.715    -161.857    -245.844
  H       -1.091    -162.809    -247.431
  H        0.236    -166.251    -244.425
  H        0.055    -165.989    -246.173
  H       -1.148    -165.312    -245.036
  H       -0.125    -163.988    -254.726
  H       -1.572    -163.671    -253.800
  H       -1.205    -165.299    -254.318

 3  4  5  6  7  8  9  10  11  12  13  23  27  28  29  30  32 0
 6-311+G(2d,p)
 ****
 34  35 0
 6-311+G(2d,p)
 ****
 1  2  14  15  16  17  18  19  20  21  22  24  25  26 0
 3-21G
 ****
 31  33  36  37  38  39  40  41  42  43  44  45  46 0
 3-21G
 ****


