%nproc=1
%NoSave
%Mem=1900MB
#P OB98/GEN NMR

erre ene a

0 1
  C       23.433    -129.455     -57.725
  O       22.160    -128.941     -58.054
  H       24.155    -129.105     -58.466
  H       23.412    -130.548     -57.746
  H       23.750    -129.108     -56.737
  P       20.950    -129.152     -57.025
  C       19.929    -131.106     -58.371
  O       20.506    -130.688     -57.142
  C       19.898    -132.636     -58.463
  O       18.852    -133.133     -57.573
  C       19.586    -133.177     -59.873
  O       20.250    -134.445     -59.993
  C       18.079    -133.346     -59.788
  O       17.556    -134.087     -60.861
  C       17.975    -133.950     -58.381
  N       16.633    -133.982     -57.812
  C       15.737    -134.915     -58.325
  O       15.995    -135.716     -59.221
  N       14.484    -134.903     -57.767
  C       14.058    -134.083     -56.764
  O       12.934    -134.140     -56.282
  C       15.049    -133.115     -56.269
  C       16.273    -133.112     -56.802
  O       19.837    -128.163     -57.119
  O       21.663    -129.099     -55.590
  H       21.513    -128.226     -55.182
  H       17.740    -135.039     -60.712
  H       13.822    -135.574     -58.123
  H       14.740    -132.441     -55.481
  H       17.027    -132.417     -56.451
  H       18.390    -134.963     -58.378
  H       17.591    -132.369     -59.832
  H       19.924    -132.512     -60.672
  H       20.849    -133.033     -58.088
  H       20.535    -130.700     -59.188
  H       18.914    -130.703     -58.446
  P       21.725    -134.616     -60.601
  C       20.890    -135.868     -62.708
  O       21.593    -134.742     -62.196
  O       22.513    -135.720     -59.975
  O       22.440    -133.200     -60.383
  H       23.406    -133.327     -60.331
  H       20.879    -135.826     -63.777
  H       19.885    -135.859     -62.340
  H       21.377    -136.767     -62.392

 6  7  8  9  10  11  12  13  14  15  16  27  31  32  33  34  35 0
 6-311+G(2d,p)
 ****
 36  37 0
 6-311+G(2d,p)
 ****
 1  2  3  4  5  17  18  19  20  21  22  23  24  25 0
 3-21G
 ****
 26  28  29  30  38  39  40  41  42  43  44  45 0
 3-21G
 ****


