%nproc=1
%NoSave
%Mem=1900MB
#P OB98/GEN NMR

erre ene a

0 1
  C     -186.059     295.051     -76.081
  O     -184.857     295.433     -75.422
  P     -184.622     296.984     -75.088
  C     -183.728     297.730     -77.471
  O     -184.682     297.841     -76.436
  C     -183.823     298.967     -78.383
  O     -185.131     299.027     -78.993
  C     -183.606     300.280     -77.640
  O     -182.234     300.621     -77.548
  C     -184.416     301.250     -78.483
  O     -183.691     301.605     -79.673
  C     -185.650     300.380     -78.839
  N     -186.779     300.351     -77.879
  C     -187.414     301.533     -77.512
  O     -187.094     302.650     -77.933
  N     -188.456     301.414     -76.635
  C     -189.035     300.244     -76.227
  O     -190.006     300.197     -75.480
  C     -188.427     299.025     -76.756
  C     -187.337     299.126     -77.533
  O     -183.086     297.052     -74.658
  O     -185.528     297.523     -74.028
  H     -184.200     302.300     -80.127
  H     -183.004     297.319     -73.723
  H     -188.880     302.262     -76.302
  H     -188.879     298.074     -76.495
  H     -186.876     298.228     -77.931
  H     -186.069     300.687     -79.806
  H     -184.595     302.177     -77.949
  H     -184.069     300.236     -76.646
  H     -183.075     298.859     -79.183
  H     -183.890     296.820     -78.052
  H     -182.725     297.656     -77.039
  P     -181.402     300.221     -76.237
  C     -181.530     302.665     -75.468
  O     -181.788     301.317     -75.131
  O     -179.941     299.990     -76.436
  O     -182.150     298.907     -75.702
  H     -181.695     298.090     -76.023
  H     -181.980     303.306     -74.702
  H     -181.970     302.908     -76.442
  H     -180.455     302.844     -75.497
  H     -186.063     293.991     -76.230
  H     -186.119     295.545     -77.028
  H     -186.899     295.330     -75.480

 3  4  5  6  7  8  9  10  11  12  13  23  28  29  30  31  32 0
 6-311+G(2d,p)
 ****
 33  34 0
 6-311+G(2d,p)
 ****
 1  2  14  15  16  17  18  19  20  21  22  24  25  26  27 0
 3-21G
 ****
 35  36  37  38  39  40  41  42  43  44  45 0
 3-21G
 ****


