%nproc=1
%NoSave
%Mem=1900MB
#P OB98/GEN NMR

erre ene a

0 1
  C     -284.246    -288.464     -50.348
  O     -284.485    -289.715     -50.981
  P     -283.255    -290.745     -51.073
  C     -282.414    -289.469     -53.171
  O     -282.102    -289.964     -51.873
  C     -281.253    -288.655     -53.728
  O     -281.109    -287.433     -52.973
  C     -279.898    -289.344     -53.645
  O     -279.710    -290.272     -54.706
  C     -278.956    -288.158     -53.781
  O     -278.807    -287.814     -55.170
  C     -279.712    -287.046     -53.032
  N     -276.679    -284.254     -50.089
  C     -276.922    -284.168     -51.444
  N     -276.281    -283.183     -52.109
  N     -277.712    -284.980     -52.094
  C     -278.315    -285.891     -51.295
  C     -278.159    -286.081     -49.940
  C     -277.238    -285.205     -49.239
  O     -276.936    -285.278     -48.054
  N     -278.948    -287.099     -49.484
  C     -279.610    -287.508     -50.545
  N     -279.237    -286.824     -51.681
  O     -283.771    -291.829     -52.132
  O     -282.858    -291.373     -49.779
  H     -278.327    -286.968     -55.210
  H     -283.314    -292.680     -51.984
  H     -276.074    -283.591     -49.634
  H     -280.360    -288.283     -50.543
  H     -279.668    -286.097     -53.577
  H     -277.951    -288.363     -53.393
  H     -275.763    -282.445     -51.643
  H     -279.756    -289.816     -52.666
  H     -276.475    -283.078     -53.096
  H     -281.486    -288.380     -54.763
  H     -283.299    -288.828     -53.108
  H     -282.639    -290.315     -53.829
  P     -278.926    -291.626     -54.343
  C     -277.006    -290.884     -55.934
  O     -277.381    -291.310     -54.635
  O     -279.348    -292.617     -55.528
  O     -279.242    -292.183     -52.998
  H     -279.284    -293.547     -55.229
  H     -277.772    -290.243     -56.382
  H     -276.845    -291.761     -56.567
  H     -276.072    -290.317     -55.864
  H     -285.144    -287.882     -50.357
  H     -283.476    -287.939     -50.874
  H     -283.938    -288.629     -49.337

 3  4  5  6  7  8  9  10  11  12  23  26  30  31  33  0
 6-311+G(2d,p)
 ****
 35  36  37  38 0
 6-311+G(2d,p)
 ****
 1  2  13  14  15  16  17  18  19  20  21  22  24  25  27  28  29 0
 3-21G
 ****
 32  34  39  40  41  42  43  44  45  46  47  48  49 0
 3-21G
 ****


