%nproc=1
%NoSave
%Mem=1900MB
#P OB98/GEN NMR

erre ene a

0 1
  C      338.877     838.939     280.470
  O      339.342     837.588     280.638
  P      338.294     836.458     281.064
  C      338.858     836.067     283.582
  O      337.937     836.577     282.627
  C      338.131     835.242     284.672
  O      337.429     834.115     284.054
  C      339.064     834.658     285.747
  O      338.322     834.620     286.976
  C      339.299     833.235     285.241
  O      339.739     832.353     286.254
  C      337.902     832.905     284.691
  N      337.877     831.773     283.759
  C      337.652     830.512     284.294
  O      337.537     830.258     285.488
  N      337.587     829.486     283.362
  C      337.769     829.605     282.016
  O      337.732     828.651     281.251
  C      338.037     830.958     281.521
  C      338.076     831.963     282.408
  O      339.199     835.132     281.021
  O      337.110     836.297     280.162
  H      339.894     831.479     285.834
  H      338.725     834.418     280.573
  H      337.409     828.571     283.722
  H      338.175     831.104     280.458
  H      338.249     832.985     282.062
  H      337.220     832.703     285.521
  H      340.048     833.260     284.448
  H      339.998     835.234     285.871
  H      337.363     835.879     285.119
  H      339.387     836.894     284.059
  H      339.595     835.442     283.068
  P      338.470     835.855     287.991
  C      339.643     834.950     290.156
  O      339.772     835.567     288.888
  O      337.264     835.555     288.997
  O      338.382     837.210     287.356
  H      337.210     834.613     289.260
  H      338.912     834.156     290.132
  H      339.353     835.707     290.893
  H      340.619     834.547     290.441
  H      339.697     839.566     280.186
  H      338.462     839.290     281.391
  H      338.127     838.966     279.707

 3  4  5  6  7  8  9  10  11  12  13  23  28  29  30  31  32 0
 6-311+G(2d,p)
 ****
 33  34 0
 6-311+G(2d,p)
 ****
 1  2  14  15  16  17  18  19  20  21  22  24  25  26 0
 3-21G
 ****
 27  35  36  37  38  39  40  41  42  43  44  45 0
 3-21G
 ****


