%nproc=1
%NoSave
%Mem=1900MB
#P OB98/GEN NMR

erre ene a

0 1
  C      -10.941     -46.103     107.759
  O      -11.078     -45.495     106.475
  P      -11.751     -46.339     105.289
  C      -14.217     -45.597     105.180
  O      -12.910     -45.444     104.633
  C      -15.259     -44.919     104.291
  O      -16.602     -45.226     104.713
  C      -15.168     -43.402     104.307
  O      -14.055     -42.951     103.554
  C      -16.528     -43.014     103.750
  O      -16.536     -43.077     102.315
  C      -17.443     -44.115     104.331
  N      -18.260     -43.658     105.445
  C      -19.230     -42.696     105.139
  O      -19.330     -42.257     103.994
  N      -20.050     -42.247     106.145
  C      -19.907     -42.710     107.349
  N      -20.749     -42.233     108.304
  C      -18.890     -43.715     107.713
  C      -18.104     -44.134     106.724
  O      -12.144     -47.737     105.634
  O      -10.616     -46.321     104.154
  H      -17.446     -42.847     102.040
  H      -10.687     -47.141     103.625
  H      -18.815     -44.075     108.729
  H      -17.326     -44.869     106.905
  H      -18.120     -44.495     103.554
  H      -16.807     -41.994     104.030
  H      -15.078     -43.049     105.344
  H      -15.124     -45.288     103.263
  H      -21.430     -41.535     108.030
  H      -14.245     -45.165     106.183
  H      -20.751     -42.567     109.257
  H      -14.429     -46.666     105.292
  P      -13.062     -41.903     104.248
  C      -10.810     -42.955     104.988
  O      -11.562     -42.372     103.941
  O      -13.237     -42.222     105.810
  O      -13.360     -40.468     103.954
  H      -13.144     -41.400     106.324
  H       -9.963     -43.491     104.552
  H      -11.412     -43.659     105.567
  H      -10.429     -42.170     105.646
  H      -10.477     -45.413     108.433
  H      -10.336     -46.981     107.675
  H      -11.908     -46.370     108.132

 3  4  5  6  7  8  9  10  11  12  13  23  27  28  29  30  32 0
 6-311+G(2d,p)
 ****
 34  35 0
 6-311+G(2d,p)
 ****
 1  2  14  15  16  17  18  19  20  21  22  24  25  26 0
 3-21G
 ****
 31  33  36  37  38  39  40  41  42  43  44  45  46 0
 3-21G
 ****


