%nproc=1
%NoSave
%Mem=1900MB
#P OB98/GEN NMR

erre ene a

0 1
  C      244.730     320.931    -332.119
  O      243.501     320.411    -331.650
  H      244.965     321.833    -331.552
  H      244.658     321.189    -333.179
  H      245.534     320.203    -331.966
  P      242.910     319.098    -332.353
  C      240.592     320.101    -332.900
  O      241.321     319.150    -332.131
  C      239.198     320.306    -332.305
  O      238.317     319.244    -332.711
  C      239.167     320.327    -330.773
  O      239.540     321.602    -330.288
  C      237.703     320.011    -330.527
  O      236.902     321.186    -330.774
  C      237.420     318.952    -331.608
  N      235.236     314.751    -329.765
  C      234.713     316.016    -329.947
  N      233.437     316.200    -329.551
  N      235.383     317.016    -330.453
  C      236.666     316.709    -330.737
  C      237.310     315.500    -330.590
  C      236.535     314.383    -330.086
  O      236.954     313.242    -329.941
  N      238.640     315.593    -330.898
  C      238.799     316.841    -331.283
  N      237.630     317.571    -331.197
  O      243.535     317.796    -331.950
  O      243.066     319.383    -333.919
  H      237.012     321.417    -331.714
  H      243.912     319.036    -334.257
  H      234.673     314.023    -329.362
  H      239.727     317.280    -331.637
  H      236.392     319.016    -331.987
  H      237.506     319.699    -329.498
  H      232.919     315.515    -329.015
  H      239.781     319.527    -330.348
  H      233.048     317.134    -329.617
  H      238.792     321.240    -332.718
  H      240.516     319.711    -333.922
  H      241.122     321.057    -332.927
  P      240.516     321.766    -329.016
  C      239.116     323.676    -327.972
  O      240.352     323.295    -328.553
  O      241.924     321.335    -329.250
  O      239.767     320.977    -327.850
  H      239.969     320.008    -327.843
  H      239.148     324.714    -327.714
  H      238.942     323.094    -327.091
  H      238.325     323.507    -328.673

 6  7  8  9  10  11  12  13  14  15  26  29  33  34 0
 6-311+G(2d,p)
 ****
 36  38  39  40  41 0
 6-311+G(2d,p)
 ****
 1  2  3  4  5  16  17  18  19  20  21  22  23  24  25 0
 3-21G
 ****
 27  28  30  31  32  35  37  42  43  44  45  46  47 0
 3-21G
 ****
 48  49 0
 3-21G
 ****


