%nproc=1
%NoSave
%Mem=1900MB
#P OB98/GEN NMR

erre ene a

0 1
  C      407.917     -95.811     182.585
  O      407.563     -94.582     183.223
  P      408.631     -93.385     183.261
  C      409.479     -93.666     185.681
  O      409.797     -93.758     184.300
  C      410.712     -93.944     186.554
  O      410.359     -93.809     187.961
  C      411.283     -95.357     186.349
  O      412.689     -95.363     186.091
  C      410.833     -96.107     187.589
  O      411.645     -97.235     187.885
  C      410.773     -94.998     188.651
  N      409.860     -95.344     189.752
  C      410.375     -96.166     190.747
  O      411.502     -96.655     190.705
  N      409.520     -96.452     191.783
  C      408.216     -96.075     191.870
  O      407.474     -96.402     192.792
  C      407.708     -95.263     190.751
  C      408.546     -94.939     189.761
  O      408.061     -92.012     183.415
  O      409.379     -93.527     181.847
  H      412.551     -96.915     188.092
  H      409.552     -92.627     181.503
  H      409.886     -97.033     192.525
  H      406.671     -94.967     190.776
  H      408.194     -94.353     188.916
  H      411.759     -94.824     189.090
  H      409.816     -96.483     187.419
  H      410.851     -95.834     185.460
  H      411.461     -93.192     186.306
  H      408.699     -94.391     185.921
  H      409.047     -92.676     185.892
  P      413.346     -95.734     184.680
  C      412.470     -98.172     184.522
  O      412.447     -96.862     183.987
  O      414.811     -96.034     184.709
  O      413.066     -94.432     183.788
  H      413.850     -94.240     183.242
  H      412.124     -98.867     183.752
  H      411.792     -98.225     185.377
  H      413.481     -98.456     184.834
  H      407.097     -96.495     182.650
  H      408.772     -96.232     183.071
  H      408.147     -95.626     181.557

 3  4  5  6  7  8  9  10  11  12  13  23  28  29  30  31  32 0
 6-311+G(2d,p)
 ****
 33  34 0
 6-311+G(2d,p)
 ****
 1  2  14  15  16  17  18  19  20  21  22  24  25  26  27 0
 3-21G
 ****
 35  36  37  38  39  40  41  42  43  44  45 0
 3-21G
 ****


