%nproc=1
%NoSave
%Mem=1900MB
#P OB98/GEN NMR

erre ene a

0 1
  C     -181.033     540.312    -126.534
  O     -180.877     538.912    -126.610
  H     -181.013     540.721    -127.549
  H     -180.211     540.759    -125.964
  H     -181.991     540.570    -126.075
  P     -180.843     538.117    -125.213
  C     -181.051     535.597    -124.698
  O     -180.606     536.580    -125.634
  C     -180.851     534.193    -125.275
  O     -181.631     534.086    -126.502
  C     -179.402     533.867    -125.621
  O     -179.136     532.496    -125.299
  C     -179.328     534.059    -127.134
  O     -178.292     533.302    -127.735
  C     -180.743     533.668    -127.560
  N     -179.349     534.324    -132.425
  C     -178.851     533.541    -131.438
  N     -179.302     533.410    -130.171
  C     -180.396     534.158    -129.975
  C     -181.021     535.010    -130.883
  C     -180.440     535.084    -132.171
  N     -180.927     535.887    -133.167
  N     -182.101     535.640    -130.296
  C     -182.142     535.185    -129.059
  N     -181.120     534.296    -128.813
  O     -182.000     538.368    -124.299
  O     -179.408     538.541    -124.634
  H     -178.420     533.325    -128.703
  H     -178.726     538.517    -125.326
  H     -177.978     532.938    -131.706
  H     -182.872     535.464    -128.299
  H     -180.853     532.574    -127.683
  H     -179.151     535.128    -127.356
  H     -178.689     534.508    -125.095
  H     -181.273     533.462    -124.573
  H     -182.108     535.755    -124.454
  H     -180.465     535.870    -134.065
  H     -181.756     536.459    -132.999
  H     -180.456     535.715    -123.781
  P     -178.482     532.154    -123.876
  C     -179.047     530.632    -121.854
  O     -179.287     530.922    -123.227
  O     -178.261     533.314    -122.972
  O     -177.097     531.477    -124.279
  H     -176.406     531.740    -123.641
  H     -179.644     529.795    -121.557
  H     -179.305     531.483    -121.259
  H     -178.012     530.399    -121.714

 6  7  8  9  10  11  12  13  14  15  25  28  32  33  34  35 0
 6-311+G(2d,p)
 ****
 36  39  40 0
 6-311+G(2d,p)
 ****
 1  2  3  4  5  16  17  18  19  20  21  22  23  24 0
 3-21G
 ****
 26  27  29  30  31  37  38  41  42  43  44  45  46  47 0
 3-21G
 ****
 48 0
 3-21G
 ****


