%nproc=1
%NoSave
%Mem=1900MB
#P OB98/GEN NMR

erre ene a

0 1
  C       27.032    -113.268    -198.980
  O       26.917    -113.500    -197.579
  P       25.487    -113.310    -196.878
  C       25.743    -110.959    -195.848
  O       25.135    -111.743    -196.872
  C       25.167    -109.541    -195.838
  O       25.397    -108.864    -197.089
  C       23.660    -109.510    -195.632
  O       23.323    -109.789    -194.283
  C       23.328    -108.100    -196.109
  O       23.568    -107.138    -195.070
  C       24.336    -107.899    -197.262
  N       23.733    -108.014    -198.581
  C       22.942    -106.934    -198.991
  O       22.763    -105.975    -198.237
  N       22.369    -106.974    -200.237
  C       22.555    -108.005    -201.006
  N       21.970    -107.988    -202.230
  C       23.371    -109.171    -200.604
  C       23.913    -109.114    -199.393
  O       25.306    -114.009    -195.573
  O       24.474    -113.890    -197.984
  H       23.180    -106.300    -195.387
  H       23.690    -114.258    -197.533
  H       23.503    -110.005    -201.281
  H       24.523    -109.927    -199.014
  H       24.803    -106.911    -197.192
  H       22.273    -108.010    -196.399
  H       23.181    -110.242    -196.293
  H       25.663    -108.981    -195.033
  H       21.406    -107.185    -202.475
  H       26.824    -110.924    -196.015
  H       22.095    -108.722    -202.916
  H       25.586    -111.458    -194.884
  P       22.114    -110.806    -194.022
  C       20.173    -109.111    -194.344
  O       20.839    -110.270    -194.819
  O       21.736    -110.514    -192.486
  O       22.446    -112.248    -194.230
  H       21.440    -111.344    -192.063
  H       19.553    -108.709    -195.143
  H       20.887    -108.346    -194.029
  H       19.528    -109.384    -193.503
  H       28.043    -113.437    -199.288
  H       26.757    -112.257    -199.198
  H       26.383    -113.936    -199.507

 3  4  5  6  7  8  9  10  11  12  13  23  27  28  29  30  32 0
 6-311+G(2d,p)
 ****
 34  35 0
 6-311+G(2d,p)
 ****
 1  2  14  15  16  17  18  19  20  21  22  24  25  26 0
 3-21G
 ****
 31  33  36  37  38  39  40  41  42  43  44  45  46 0
 3-21G
 ****


