%nproc=1
%NoSave
%Mem=1900MB
#P OB98/GEN NMR

erre ene a

0 1
  C     -316.597     162.417     -80.961
  O     -317.427     162.189     -82.112
  P     -317.617     163.376     -83.188
  C     -319.944     164.119     -82.261
  O     -318.622     164.488     -82.617
  C     -320.975     165.094     -82.846
  O     -320.917     166.375     -82.157
  C     -320.788     165.382     -84.350
  O     -322.091     165.601     -84.907
  C     -320.004     166.691     -84.330
  O     -320.079     167.406     -85.558
  C     -320.684     167.391     -83.150
  N     -319.910     168.498     -82.584
  C     -320.251     169.797     -82.959
  O     -321.126     170.071     -83.770
  N     -319.527     170.801     -82.364
  C     -318.481     170.638     -81.496
  O     -317.850     171.575     -81.029
  C     -318.138     169.246     -81.168
  C     -318.866     168.256     -81.711
  O     -318.514     162.658     -84.310
  O     -316.358     163.901     -83.791
  H     -319.842     166.782     -86.269
  H     -318.155     162.859     -85.199
  H     -319.770     171.741     -82.611
  H     -317.325     169.074     -80.471
  H     -318.630     167.222     -81.473
  H     -321.670     167.763     -83.464
  H     -318.951     166.475     -84.128
  H     -320.274     164.578     -84.879
  H     -321.971     164.680     -82.667
  H     -320.032     164.129     -81.165
  H     -320.138     163.103     -82.612
  P     -322.575     164.644     -86.113
  C     -322.450     166.000     -88.347
  O     -321.812     165.136     -87.440
  O     -324.070     165.195     -86.321
  O     -322.518     163.177     -85.804
  H     -324.118     166.162     -86.329
  H     -323.015     166.781     -87.834
  H     -323.123     165.429     -88.991
  H     -321.684     166.477     -88.970
  H     -316.579     161.536     -80.354
  H     -316.992     163.233     -80.393
  H     -315.603     162.652     -81.279

 3  4  5  6  7  8  9  10  11  12  13  23  28  29  30  31  32 0
 6-311+G(2d,p)
 ****
 33  34 0
 6-311+G(2d,p)
 ****
 1  2  14  15  16  17  18  19  20  21  22  24  25  26 0
 3-21G
 ****
 27  35  36  37  38  39  40  41  42  43  44  45 0
 3-21G
 ****


