%nproc=1
%NoSave
%Mem=1900MB
#P OB98/GEN NMR

erre ene a

0 1
  C     -896.440    -665.715    -965.253
  O     -897.590    -666.356    -965.782
  H     -896.030    -665.023    -965.994
  H     -896.730    -665.147    -964.367
  H     -895.690    -666.457    -964.972
  P     -897.380    -667.219    -967.120
  C     -896.060    -669.123    -965.934
  O     -896.030    -668.054    -966.874
  C     -896.030    -670.450    -966.691
  O     -897.120    -670.514    -967.629
  C     -894.760    -670.666    -967.503
  O     -893.680    -671.150    -966.724
  C     -895.240    -671.714    -968.488
  O     -895.290    -673.005    -967.858
  C     -896.650    -671.215    -968.808
  N     -898.990    -670.254    -973.270
  C     -899.200    -671.202    -972.324
  N     -898.560    -671.371    -971.152
  C     -897.600    -670.447    -970.992
  C     -897.260    -669.430    -971.873
  C     -898.010    -669.351    -973.063
  N     -897.760    -668.412    -974.041
  N     -896.210    -668.681    -971.376
  C     -895.920    -669.238    -970.213
  N     -896.710    -670.328    -969.959
  O     -896.940    -666.137    -968.211
  O     -898.550    -668.045    -967.551
  H     -896.050    -672.996    -967.246
  H     -897.010    -666.508    -969.103
  H     -900.000    -671.898    -972.536
  H     -895.160    -668.902    -969.529
  H     -897.360    -672.049    -969.003
  H     -894.580    -671.820    -969.363
  H     -894.480    -669.759    -968.061
  H     -896.160    -671.263    -965.962
  H     -896.970    -669.056    -965.342
  H     -898.250    -668.533    -974.922
  H     -896.950    -667.823    -973.975
  H     -895.190    -669.042    -965.275
  P     -892.200    -670.652    -967.129
  C     -891.650    -668.587    -965.634
  O     -892.170    -669.062    -966.883
  O     -892.200    -670.780    -968.717
  O     -891.090    -671.437    -966.497
  H     -891.310    -671.000    -969.052
  H     -891.693    -667.518    -965.613
  H     -890.634    -668.906    -965.526
  H     -892.235    -668.983    -964.830

 6  7  8  9  10  11  12  13  14  15  25  28  32  33  34  35 0
 6-311+G(2d,p)
 ****
 36  39  40 0
 6-311+G(2d,p)
 ****
 1  2  3  4  5  16  17  18  19  20  21  22  23  24 0
 3-21G
 ****
 26  27  29  30  31  37  38  41  42  43  44  45  46  47 0
 3-21G
 ****
 48 0
 3-21G
 ****


