%nproc=1
%NoSave
%Mem=1900MB
#P OB98/GEN NMR

erre ene a

0 1
  C      226.242     541.682      99.371
  O      225.695     540.864      98.357
  H      226.784     541.044     100.078
  H      225.444     542.198      99.905
  H      226.938     542.409      98.943
  P      225.006     541.611      97.116
  C      222.999     543.298      96.911
  O      223.644     542.276      97.672
  C      221.635     542.803      96.426
  O      220.716     542.644      97.528
  C      220.927     543.775      95.491
  O      221.521     543.850      94.221
  C      219.529     543.167      95.496
  O      219.460     542.029      94.621
  C      219.381     542.727      96.969
  N      218.536     543.637      97.741
  C      217.193     543.240      97.887
  O      216.801     542.179      97.403
  N      216.332     544.079      98.573
  C      216.769     545.188      99.075
  N      215.871     545.972      99.732
  C      218.181     545.624      98.965
  C      218.985     544.818      98.287
  O      224.468     540.396      96.221
  O      225.876     542.577      96.383
  H      218.554     541.658      94.720
  H      223.913     539.760      96.722
  H      218.499     546.563      99.412
  H      220.045     545.065      98.149
  H      218.945     541.718      97.035
  H      218.776     543.875      95.147
  H      220.855     544.764      95.963
  H      221.779     541.820      95.949
  H      214.905     545.644      99.768
  H      223.625     543.616      96.064
  H      216.096     546.875     100.135
  H      222.872     544.170      97.569
  P      221.150     545.038      93.214
  C      219.005     545.834      92.022
  O      219.633     544.787      92.762
  O      222.098     545.246      92.087
  O      221.004     546.315      94.183
  H      220.317     546.224      94.875
  H      218.002     545.548      91.781
  H      219.552     546.011      91.120
  H      218.990     546.727      92.611

 6  7  8  9  10  11  12  13  14  15  16  26  30  31  32  33  35 0
 6-311+G(2d,p)
 ****
 37  38 0
 6-311+G(2d,p)
 ****
 1  2  3  4  5  17  18  19  20  21  22  23  24  25 0
 3-21G
 ****
 27  28  29  34  36  39  40  41  42  43  44  45  46 0
 3-21G
 ****


