%nproc=1
%NoSave
%Mem=1900MB
#P OB98/GEN NMR

erre ene a

0 1
  C      386.165     931.894     -61.810
  O      387.561     931.734     -61.948
  H      385.678     930.936     -62.021
  H      385.803     932.641     -62.527
  H      385.912     932.205     -60.791
  P      388.478     932.974     -61.507
  C      390.337     933.360     -63.322
  O      389.924     932.692     -62.145
  C      391.443     932.578     -64.038
  O      392.427     932.167     -63.050
  C      390.949     931.317     -64.743
  O      391.713     931.139     -65.941
  C      391.276     930.201     -63.761
  O      391.390     928.934     -64.407
  C      392.582     930.733     -63.141
  N      392.857     930.137     -61.837
  C      393.999     929.332     -61.742
  O      394.704     929.140     -62.728
  N      394.281     928.720     -60.541
  C      393.468     928.856     -59.538
  N      393.784     928.207     -58.389
  C      392.222     929.656     -59.613
  C      391.994     930.258     -60.769
  O      388.696     932.688     -59.947
  O      387.894     934.314     -61.817
  H      391.750     928.288     -63.766
  H      388.904     931.758     -59.751
  H      391.563     929.729     -58.751
  H      391.105     930.884     -60.912
  H      393.438     930.525     -63.801
  H      390.498     930.121     -63.002
  H      389.885     931.357     -65.000
  H      391.951     933.250     -64.731
  H      394.637     927.652     -58.395
  H      390.699     934.370     -63.087
  H      393.201     928.190     -57.568
  H      389.461     933.462     -63.983
  P      391.094     931.593     -67.351
  C      392.049     929.794     -68.964
  O      392.105     931.158     -68.530
  O      390.610     933.001     -67.420
  O      389.879     930.562     -67.543
  H      389.127     931.058     -67.922
  H      392.765     929.638     -69.744
  H      391.068     929.577     -69.332
  H      392.273     929.148     -68.141

 6  7  8  9  10  11  12  13  14  15  16  26  30  31  32  33  35 0
 6-311+G(2d,p)
 ****
 37  38 0
 6-311+G(2d,p)
 ****
 1  2  3  4  5  17  18  19  20  21  22  23  24  25 0
 3-21G
 ****
 27  28  29  34  36  39  40  41  42  43  44  45  46 0
 3-21G
 ****


