%nproc=1
%NoSave
%Mem=1900MB
#P OB98/GEN NMR

erre ene a

0 1
  C     1071.951     471.291    -535.403
  O     1071.987     469.972    -534.898
  H     1071.154     471.839    -534.893
  H     1071.729     471.271    -536.474
  H     1072.901     471.791    -535.226
  P     1073.120     469.008    -535.495
  C     1073.667     467.393    -533.518
  O     1072.955     467.602    -534.735
  C     1072.958     468.095    -532.358
  O     1071.571     467.643    -532.317
  C     1073.578     467.794    -530.974
  O     1073.372     468.938    -530.131
  C     1072.708     466.643    -530.502
  O     1072.860     466.464    -529.107
  C     1071.344     467.138    -530.985
  N     1068.485     464.069    -528.064
  C     1069.331     465.090    -527.772
  N     1070.044     465.855    -528.602
  C     1069.809     465.523    -529.880
  C     1068.969     464.528    -530.351
  C     1068.292     463.779    -529.378
  N     1067.437     462.728    -529.686
  N     1068.999     464.469    -531.725
  C     1069.837     465.430    -532.090
  N     1070.346     466.098    -531.003
  O     1074.468     469.615    -534.893
  O     1073.163     468.908    -536.988
  H     1072.188     465.849    -528.757
  H     1074.860     470.252    -535.513
  H     1069.443     465.290    -526.703
  H     1070.123     465.678    -533.106
  H     1070.953     467.959    -530.374
  H     1072.988     465.711    -530.986
  H     1074.635     467.558    -531.026
  H     1072.931     469.183    -532.561
  H     1074.686     467.792    -533.632
  H     1073.716     466.316    -533.321
  H     1067.012     462.226    -528.930
  H     1067.318     462.465    -530.661
  P     1074.521     470.057    -530.043
  C     1073.168     472.147    -529.245
  O     1074.139     471.159    -528.934
  O     1074.312     470.865    -531.410
  O     1075.926     469.526    -529.966
  H     1075.164     471.011    -531.837
  H     1073.035     472.794    -528.403
  H     1072.238     471.672    -529.480
  H     1073.498     472.719    -530.086

 6  7  8  9  10  11  12  13  14  15  25  28  32  33  34  35 0
 6-311+G(2d,p)
 ****
 36  37  40 0
 6-311+G(2d,p)
 ****
 1  2  3  4  5  16  17  18  19  20  21  22  23  24 0
 3-21G
 ****
 26  27  29  30  31  38  39 41  42  43  44  45  46  47  48 0
 3-21G
 ****


