%nproc=1
%NoSave
%Mem=1900MB
#P OB98/GEN NMR

erre ene a

0 1
  C     -593.092     501.121     168.902
  O     -592.567     500.825     170.177
  P     -593.438     500.875     171.519
  C     -592.877     503.238     172.453
  O     -593.839     502.408     171.810
  C     -593.500     504.139     173.548
  O     -594.553     504.929     172.965
  C     -594.145     503.278     174.630
  O     -593.355     502.750     175.678
  C     -595.368     504.075     175.080
  O     -595.139     504.816     176.277
  C     -595.640     505.005     173.901
  N     -600.679     505.571     173.918
  C     -599.734     506.244     174.662
  N     -600.200     507.023     175.651
  N     -598.439     506.136     174.452
  C     -598.124     505.252     173.481
  C     -598.972     504.526     172.671
  C     -600.398     504.683     172.879
  O     -601.273     504.045     172.301
  N     -598.296     503.667     171.851
  C     -597.035     503.829     172.191
  N     -596.885     504.742     173.194
  O     -592.965     500.030     172.668
  O     -594.841     500.255     171.005
  H     -595.998     505.169     176.596
  H     -595.218     499.753     171.750
  H     -601.661     505.615     174.180
  H     -596.189     503.284     171.750
  H     -595.676     506.053     174.242
  H     -596.202     503.398     175.295
  H     -601.171     507.009     175.938
  H     -594.558     502.385     174.131
  H     -599.530     507.395     176.321
  H     -592.768     504.860     173.920
  H     -592.388     503.839     171.682
  H     -592.109     502.614     172.911
  P     -593.847     501.696     176.784
  C     -593.762     503.519     178.584
  O     -594.540     502.500     177.984
  O     -592.475     501.171     177.456
  O     -594.640     500.554     176.248
  H     -592.627     500.291     177.867
  H     -594.185     503.776     179.545
  H     -593.771     504.408     177.935
  H     -592.728     503.192     178.720
  H     -592.321     501.019     168.167
  H     -593.463     502.125     168.893
  H     -593.890     500.444     168.679

 3  4  5  6  7  8  9  10  11  12  23  26  30  31 0
 6-311+G(2d,p)
 ****
 33  35  36  37  38 0
 6-311+G(2d,p)
 ****
 1  2  13  14  15  16  17  18  19  20  21  22  24  25 0
 3-21G
 ****
 27  28  29  32  34  39  40  41  42  43  44  45  46  47  48  49 0
 3-21G
 ****


