%nproc=1
%NoSave
%Mem=1900MB
#P OB98/GEN NMR

erre ene a

0 1
  C     -123.383      28.163     200.873
  O     -122.790      28.223     202.151
  H     -123.413      29.175     200.457
  H     -124.404      27.783     200.937
  H     -122.787      27.530     200.207
  P     -122.786      26.906     203.072
  C     -124.820      27.644     204.457
  O     -124.329      26.705     203.508
  C     -126.249      27.314     204.887
  O     -126.677      28.244     205.920
  C     -127.275      27.379     203.745
  O     -128.115      26.222     203.788
  C     -128.092      28.629     204.071
  O     -129.391      28.587     203.492
  C     -128.031      28.627     205.605
  N     -128.370      29.927     206.189
  C     -129.708      30.106     206.562
  O     -130.538      29.215     206.356
  N     -130.084      31.304     207.116
  C     -129.211      32.259     207.242
  N     -129.645      33.425     207.785
  C     -127.804      32.123     206.817
  C     -127.453      30.942     206.313
  O     -121.813      26.937     204.206
  O     -122.544      25.703     202.050
  H     -129.939      29.288     203.907
  H     -122.215      24.910     202.548
  H     -127.113      32.951     206.932
  H     -126.432      30.748     205.985
  H     -128.712      27.877     206.022
  H     -127.571      29.517     203.678
  H     -126.821      27.450     202.765
  H     -126.245      26.315     205.360
  H     -130.622      33.480     208.063
  H     -124.782      28.646     204.013
  H     -129.061      34.236     207.928
  H     -124.164      27.615     205.341
  P     -127.975      25.207     202.548
  C     -128.942      26.849     200.786
  O     -127.819      26.088     201.206
  O     -129.441      24.576     202.423
  O     -126.930      24.156     202.745
  H     -129.458      23.685     202.831
  H     -128.698      27.380     199.889
  H     -129.207      27.547     201.553
  H     -129.767      26.194     200.599

 6  7  8  9  10  11  12  13  14  15  16  26  30  31  32  33  35 0
 6-311+G(2d,p)
 ****
 37  38 0
 6-311+G(2d,p)
 ****
 1  2  3  4  5  17  18  19  20  21  22  23  24  25 0
 3-21G
 ****
 27  28  29  34  36  39  40  41  42  43  44  45  46 0
 3-21G
 ****


