%nproc=1
%NoSave
%Mem=1900MB
#P OB98/GEN NMR

erre ene a

0 1
  C      749.539     463.353     274.988
  O      748.984     462.589     276.037
  H      748.895     463.258     274.105
  H      750.537     462.986     274.735
  H      749.589     464.406     275.275
  P      749.829     462.505     277.395
  C      752.089     461.429     278.105
  O      751.069     461.528     277.116
  C      753.381     460.935     277.459
  O      753.732     461.795     276.348
  C      754.582     460.952     278.391
  O      754.610     459.850     279.278
  C      755.721     460.909     277.381
  O      756.018     459.568     276.970
  C      755.165     461.740     276.209
  N      755.769     463.072     276.158
  C      757.148     463.108     275.934
  O      757.829     462.097     275.784
  N      757.716     464.347     275.921
  C      757.073     465.530     276.164
  O      757.657     466.615     276.200
  C      755.621     465.430     276.411
  C      755.044     464.220     276.404
  O      748.883     461.648     278.362
  O      750.191     463.827     277.994
  H      748.482     462.232     279.035
  H      755.158     459.136     276.804
  H      758.713     464.398     275.766
  H      755.082     466.353     276.605
  H      753.981     464.130     276.597
  H      755.376     461.242     275.257
  H      756.634     461.324     277.809
  H      754.628     461.905     278.933
  H      753.213     459.919     277.067
  H      751.782     460.716     278.877
  H      752.232     462.412     278.569
  P      755.383     460.029     280.670
  C      757.777     460.940     281.263
  O      756.879     460.447     280.279
  O      755.494     458.502     281.147
  O      754.684     460.938     281.621
  H      755.493     457.885     280.386
  H      758.719     461.162     280.807
  H      757.914     460.200     282.024
  H      757.374     461.830     281.700

 6  7  8  9  10  11  12  13  14  15  16  27  31  32  33  34  35 0
 6-311+G(2d,p)
 ****
 36  37 0
 6-311+G(2d,p)
 ****
 1  2  3  4  5  17  18  19  20  21  22  23  24  25 0
 3-21G
 ****
 26  28  29  30  38  39  40  41  42  43  44  45 0
 3-21G
 ****


