%nproc=1
%NoSave
%Mem=1900MB
#P OB98/GEN NMR

erre ene a

0 1
  C      268.918      80.378      12.042
  O      270.205      80.153      11.498
  H      268.496      79.420      12.353
  H      268.267      80.828      11.287
  H      268.986      81.035      12.914
  P      271.013      81.452      11.019
  C      270.207      81.116       8.560
  O      270.269      81.971       9.694
  C      269.151      81.622       7.574
  O      269.057      80.678       6.465
  C      267.743      81.742       8.181
  O      267.043      82.803       7.510
  C      267.124      80.408       7.791
  O      265.724      80.456       7.921
  C      267.675      80.275       6.375
  N      264.436      76.773       4.576
  C      264.259      78.061       4.937
  N      265.180      78.933       5.401
  C      266.394      78.361       5.445
  C      266.728      77.059       5.112
  C      265.677      76.241       4.659
  N      265.847      74.921       4.309
  N      268.077      76.835       5.317
  C      268.550      77.982       5.763
  N      267.568      78.932       5.854
  O      272.389      80.844      10.467
  O      271.241      82.494      12.060
  H      265.325      79.575       7.778
  H      273.058      80.840      11.176
  H      263.245      78.443       4.847
  H      269.576      78.177       6.041
  H      267.172      80.946       5.667
  H      267.487      79.602       8.436
  H      267.750      81.927       9.260
  H      269.482      82.577       7.146
  H      269.950      80.107       8.897
  H      271.185      81.093       8.070
  H      265.036      74.396       4.023
  H      266.760      74.503       4.400
  P      266.954      84.245       8.211
  C      264.636      84.040       9.388
  O      266.042      84.176       9.527
  O      266.020      85.054       7.192
  O      268.259      84.952       8.384
  H      266.402      85.938       7.021
  H      264.183      84.010      10.357
  H      264.415      83.134       8.863
  H      264.250      84.873       8.839

 6  7  8  9  10  11  12  13  14  15  25  28  32  33  34  35 0
 6-311+G(2d,p)
 ****
 36  37  40 0
 6-311+G(2d,p)
 ****
 1  2  3  4  5  16  17  18  19  20  21  22  23  24 0
 3-21G
 ****
 26  27  29  30  31  38  39 41  42  43  44  45  46  47  48 0
 3-21G
 ****


