%nproc=1
%NoSave
%Mem=1900MB
#P OB98/GEN NMR

erre ene a

0 1
  C      180.803    -163.612     931.243
  O      180.355    -162.268     931.274
  H      179.928    -164.273     931.308
  H      181.454    -163.809     932.110
  H      181.347    -163.821     930.318
  P      181.463    -161.134     931.009
  C      182.603    -161.020     933.377
  O      181.735    -160.406     932.423
  C      182.989    -160.001     934.448
  O      183.853    -158.966     933.892
  C      181.808    -159.233     935.015
  O      180.988    -160.026     935.860
  C      182.550    -158.116     935.753
  O      183.059    -158.574     937.015
  C      183.711    -157.802     934.763
  N      183.474    -156.588     933.989
  C      184.018    -155.407     934.542
  O      184.637    -155.447     935.592
  N      183.788    -154.224     933.880
  C      183.118    -154.229     932.774
  N      182.917    -153.003     932.161
  C      182.564    -155.434     932.148
  C      182.782    -156.573     932.804
  O      180.632    -160.025     930.200
  O      182.704    -161.603     930.326
  H      182.281    -158.885     937.527
  H      179.821    -159.743     930.649
  H      182.021    -155.380     931.200
  H      182.399    -157.511     932.430
  H      184.653    -157.706     935.315
  H      181.898    -157.264     935.972
  H      181.232    -158.771     934.217
  H      183.543    -160.531     935.230
  H      183.315    -152.190     932.628
  H      183.489    -161.447     932.896
  H      182.401    -152.878     931.308
  H      182.039    -161.857     933.843
  P      179.517    -160.453     935.385
  C      178.653    -158.025     935.207
  O      178.534    -159.288     935.869
  O      179.101    -161.848     935.784
  O      179.553    -160.215     933.795
  H      179.748    -159.296     933.513
  H      177.945    -157.337     935.621
  H      178.460    -158.150     934.162
  H      179.643    -157.643     935.343

 6  7  8  9  10  11  12  13  14  15  16  26  30  31  32  33  35 0
 6-311+G(2d,p)
 ****
 37  38 0
 6-311+G(2d,p)
 ****
 1  2  3  4  5  17  18  19  20  21  22  23  24  25 0
 3-21G
 ****
 27  28  29  34  36  39  40  41  42  43  44  45  46 0
 3-21G
 ****


