%nproc=1
%NoSave
%Mem=1900MB
#P OB98/GEN NMR

erre ene a

0 1
  C     -328.153     -20.217     574.031
  O     -327.227     -19.299     574.573
  H     -328.840     -20.526     574.821
  H     -327.637     -21.102     573.639
  H     -328.729     -19.744     573.224
  P     -326.030     -18.779     573.644
  C     -324.032     -17.150     573.947
  O     -325.061     -17.912     574.585
  C     -322.992     -16.670     574.970
  O     -323.652     -15.741     575.903
  C     -322.386     -17.805     575.814
  O     -321.045     -17.404     576.170
  C     -323.292     -17.795     577.039
  O     -322.731     -18.527     578.098
  C     -323.468     -16.283     577.232
  N     -324.603     -15.963     578.102
  C     -324.327     -15.882     579.468
  O     -323.181     -16.084     579.877
  N     -325.350     -15.601     580.335
  C     -326.558     -15.477     579.884
  N     -327.533     -15.216     580.792
  C     -326.909     -15.627     578.439
  C     -325.895     -15.863     577.616
  O     -326.437     -18.105     572.373
  O     -325.163     -20.091     573.347
  H     -321.873     -18.139     578.382
  H     -325.325     -20.403     572.435
  H     -327.941     -15.536     578.124
  H     -326.049     -15.984     576.554
  H     -322.567     -15.842     577.655
  H     -324.260     -18.265     576.807
  H     -322.366     -18.764     575.296
  H     -322.221     -16.101     574.454
  H     -327.254     -15.126     581.759
  H     -324.519     -16.294     573.471
  H     -328.529     -15.119     580.563
  H     -323.546     -17.749     573.179
  P     -319.792     -17.641     575.209
  C     -317.319     -16.876     575.065
  O     -318.469     -17.046     575.907
  O     -319.992     -17.171     573.801
  O     -319.537     -19.232     575.246
  H     -319.156     -19.506     574.394
  H     -316.511     -16.477     575.641
  H     -317.556     -16.202     574.269
  H     -317.032     -17.823     574.657

 6  7  8  9  10  11  12  13  14  15  16  26  30  31  32  33  35 0
 6-311+G(2d,p)
 ****
 37  38 0
 6-311+G(2d,p)
 ****
 1  2  3  4  5  17  18  19  20  21  22  23  24  25 0
 3-21G
 ****
 27  28  29  34  36  39  40  41  42  43  44  45  46 0
 3-21G
 ****


