%nproc=1
%NoSave
%Mem=1900MB
#P OB98/GEN NMR

erre ene a

0 1
  C       64.222     -69.469      26.525
  O       64.369     -70.096      27.782
  H       64.897     -69.949      25.811
  H       64.498     -68.415      26.611
  H       63.196     -69.558      26.159
  P       63.220     -69.836      28.870
  C       64.821     -68.653      30.535
  O       63.951     -69.750      30.298
  C       65.791     -68.978      31.672
  O       66.810     -69.892      31.165
  C       66.512     -67.750      32.252
  O       66.672     -67.933      33.665
  C       67.883     -67.830      31.606
  O       68.877     -67.142      32.357
  C       68.082     -69.341      31.550
  N       73.066     -69.734      31.119
  C       72.275     -69.535      32.232
  N       72.906     -69.349      33.410
  N       70.969     -69.513      32.194
  C       70.463     -69.730      30.956
  C       71.136     -69.936      29.777
  C       72.584     -69.941      29.828
  O       73.339     -70.091      28.874
  N       70.261     -70.054      28.726
  C       69.065     -69.899      29.268
  N       69.137     -69.699      30.618
  O       62.462     -71.246      28.920
  O       62.288     -68.713      28.561
  H       68.545     -66.242      32.551
  H       61.691     -71.228      28.323
  H       74.068     -69.726      31.200
  H       68.129     -69.904      28.730
  H       68.360     -69.764      32.524
  H       67.849     -67.398      30.599
  H       73.907     -69.383      33.525
  H       66.002     -66.801      32.057
  H       72.338     -69.242      34.242
  H       65.244     -69.512      32.457
  H       64.227     -67.776      30.814
  H       65.373     -68.425      29.617
  P       66.145     -66.774      34.639
  C       67.266     -67.240      36.941
  O       66.100     -67.345      36.137
  O       64.597     -66.650      34.248
  O       66.856     -65.473      34.472
  H       64.309     -65.722      34.328
  H       67.074     -67.664      37.905
  H       67.532     -66.209      37.051
  H       68.071     -67.768      36.473

 6  7  8  9  10  11  12  13  14  15  26  29  33  34 0
 6-311+G(2d,p)
 ****
 36  38  39  40  41 0
 6-311+G(2d,p)
 ****
 1  2  3  4  5  16  17  18  19  20  21  22  23  24  25 0
 3-21G
 ****
 27  28  30  31  32  35  37  42  43  44  45  46  47 0
 3-21G
 ****
 48  49 0
 3-21G
 ****


