%nproc=1
%NoSave
%Mem=1900MB
#P OB98/GEN NMR

erre ene a

0 1
  C      208.217     131.810     283.400
  O      207.731     133.137     283.357
  H      208.036     131.371     284.385
  H      207.689     131.215     282.648
  H      209.290     131.792     283.177
  P      208.357     134.168     284.414
  C      210.117     135.004     282.687
  O      209.877     134.383     283.942
  C      211.427     135.778     282.749
  O      211.830     136.183     281.420
  C      211.346     137.062     283.564
  O      211.479     136.831     284.958
  C      212.540     137.823     283.014
  O      213.757     137.294     283.574
  C      212.457     137.488     281.517
  N      212.181     142.337     279.898
  C      213.125     141.675     280.598
  N      213.133     140.375     280.969
  C      212.029     139.749     280.535
  C      210.982     140.295     279.808
  C      211.084     141.661     279.486
  N      210.109     142.348     278.800
  N      210.012     139.342     279.563
  C      210.473     138.242     280.123
  N      211.672     138.445     280.751
  O      208.513     133.300     285.750
  O      207.589     135.432     284.626
  H      214.460     137.943     283.394
  H      208.674     133.881     286.516
  H      213.986     142.262     280.901
  H      209.975     137.282     280.109
  H      213.443     137.423     281.042
  H      212.511     138.888     283.255
  H      210.430     137.623     283.342
  H      212.203     135.108     283.142
  H      209.291     135.692     282.467
  H      210.202     143.351     278.749
  H      209.226     141.891     278.621
  H      210.162     134.239     281.907
  P      211.068     138.030     285.949
  C      208.870     136.922     286.777
  O      209.469     137.995     286.060
  O      211.348     139.335     285.069
  O      211.811     138.045     287.245
  H      211.629     140.082     285.633
  H      207.806     137.035     286.764
  H      209.218     136.931     287.789
  H      209.136     135.993     286.317

 6  7  8  9  10  11  12  13  14  15  25  28  32  33  34  35 0
 6-311+G(2d,p)
 ****
 36  39  40 0
 6-311+G(2d,p)
 ****
 1  2  3  4  5  16  17  18  19  20  21  22  23  24 0
 3-21G
 ****
 26  27  29  30  31  37  38  41  42  43  44  45  46  47 0
 3-21G
 ****
 48 0
 3-21G
 ****


