%nproc=1
%NoSave
%Mem=1900MB
#P OB98/GEN NMR

erre ene a

0 1
  C      -75.871      52.866      -3.185
  O      -76.505      52.043      -2.232
  H      -75.164      53.519      -2.667
  H      -76.618      53.487      -3.689
  H      -75.326      52.275      -3.926
  P      -77.243      50.714      -2.731
  C      -79.502      51.935      -2.999
  O      -78.494      51.159      -3.636
  C      -80.413      52.629      -4.012
  O      -79.629      53.439      -4.916
  C      -81.172      51.632      -4.890
  O      -82.367      51.119      -4.330
  C      -81.466      52.471      -6.131
  O      -82.667      53.241      -5.957
  C      -80.246      53.392      -6.214
  N      -79.126      52.846     -11.170
  C      -80.302      53.276     -10.586
  N      -81.326      53.537     -11.428
  N      -80.457      53.416      -9.296
  C      -79.380      53.026      -8.573
  C      -78.167      52.571      -9.039
  C      -77.986      52.472     -10.473
  O      -76.967      52.089     -11.040
  N      -77.310      52.274      -8.005
  C      -78.031      52.477      -6.920
  N      -79.285      52.960      -7.213
  O      -77.958      50.159      -1.406
  O      -76.351      49.673      -3.337
  H      -82.619      53.693      -5.095
  H      -78.077      49.195      -1.472
  H      -79.054      52.783     -12.170
  H      -77.686      52.319      -5.904
  H      -80.536      54.419      -6.468
  H      -81.617      51.845      -7.015
  H      -81.290      53.333     -12.416
  H      -80.517      50.805      -5.181
  H      -82.267      53.595     -11.034
  H      -81.095      53.304      -3.482
  H      -78.987      52.680      -2.389
  H      -80.089      51.310      -2.321
  P      -82.837      49.628      -4.671
  C      -83.805      50.371      -6.969
  O      -82.926      49.518      -6.268
  O      -84.366      49.621      -4.200
  O      -82.046      48.552      -4.007
  H      -84.441      49.246      -3.303
  H      -83.740      50.166      -8.017
  H      -83.534      51.390      -6.787
  H      -84.807      50.203      -6.634

 6  7  8  9  10  11  12  13  14  15  26  29  33  34 0
 6-311+G(2d,p)
 ****
 36  38  39  40  41 0
 6-311+G(2d,p)
 ****
 1  2  3  4  5  16  17  18  19  20  21  22  23  24  25 0
 3-21G
 ****
 27  28  30  31  32  35  37  42  43  44  45  46  47 0
 3-21G
 ****
 48  49 0
 3-21G
 ****


