%nproc=1
%NoSave
%Mem=1900MB
#P OB98/GEN NMR

erre ene a

0 1
  C      167.210     100.443    -298.482
  O      168.471     100.141    -299.051
  H      166.682      99.506    -298.295
  H      166.619     101.044    -299.179
  H      167.328     100.976    -297.533
  P      169.514     101.337    -299.298
  C      168.970     101.069    -301.810
  O      169.175     101.974    -300.733
  C      169.490     101.656    -303.128
  O      170.936     101.758    -303.057
  C      169.135     100.820    -304.362
  O      168.847     101.690    -305.458
  C      170.414     100.046    -304.642
  O      170.529      99.675    -306.015
  C      171.485     101.035    -304.181
  N      175.773      99.026    -305.949
  C      174.767      99.720    -306.618
  N      174.919      99.883    -307.942
  N      173.707     100.200    -306.019
  C      173.700      99.979    -304.677
  C      174.623      99.313    -303.908
  C      175.782      98.767    -304.586
  O      176.686      98.131    -304.058
  N      174.250      99.282    -302.591
  C      173.095      99.930    -302.557
  N      172.712     100.360    -303.804
  O      170.951     100.962    -299.104
  O      169.059     102.476    -298.271
  H      169.672      99.286    -306.280
  H      169.666     102.524    -297.514
  H      176.560      98.665    -306.462
  H      172.500     100.104    -301.673
  H      171.747     101.768    -304.961
  H      170.435      99.132    -304.033
  H      175.733      99.559    -308.464
  H      168.284     100.157    -304.183
  H      174.225     100.408    -308.442
  H      169.107     102.678    -303.222
  H      167.893     100.868    -301.889
  H      169.481     100.120    -301.593
  P      167.351     102.235    -305.655
  C      166.330     100.258    -306.943
  O      166.350     100.974    -305.712
  O      167.163     103.237    -306.741
  O      167.013     102.875    -304.210
  H      166.438     103.655    -304.344
  H      165.636      99.446    -306.872
  H      167.308      99.875    -307.149
  H      166.031     100.915    -307.733

 6  7  8  9  10  11  12  13  14  15  26  29  33  34 0
 6-311+G(2d,p)
 ****
 36  38  39  40  41 0
 6-311+G(2d,p)
 ****
 1  2  3  4  5  16  17  18  19  20  21  22  23  24  25 0
 3-21G
 ****
 27  28  30  31  32  35  37  42  43  44  45  46  47 0
 3-21G
 ****
 48  49 0
 3-21G
 ****


