%nproc=1
%NoSave
%Mem=1900MB
#P OB98/GEN NMR

erre ene a

0 1
  C       55.421    -641.693     871.402
  O       56.073    -641.000     870.354
  H       55.558    -641.119     872.329
  H       55.863    -642.679     871.530
  H       54.350    -641.778     871.202
  P       55.887    -641.528     868.847
  C       58.320    -640.978     868.157
  O       57.334    -641.999     868.342
  C       59.720    -641.576     868.277
  O       59.919    -642.074     869.624
  C       59.978    -642.756     867.355
  O       60.190    -642.343     866.037
  C       61.180    -643.402     868.042
  O       62.393    -642.717     867.662
  C       60.861    -643.163     869.534
  N       60.355    -644.367     870.182
  C       61.290    -645.224     870.733
  O       62.513    -645.004     870.730
  N       60.800    -646.394     871.278
  C       59.510    -646.818     871.177
  O       59.169    -647.966     871.445
  C       58.554    -645.866     870.640
  C       59.003    -644.695     870.151
  O       55.158    -640.615     867.924
  O       55.115    -642.920     869.038
  H       54.167    -642.779     868.828
  H       62.342    -641.835     868.084
  H       61.488    -647.026     871.658
  H       57.505    -646.142     870.610
  H       58.321    -643.981     869.722
  H       61.777    -642.833     870.064
  H       61.291    -644.443     867.775
  H       59.135    -643.465     867.415
  H       60.455    -640.763     868.103
  H       58.170    -640.207     868.924
  H       58.172    -640.520     867.167
  P       59.658    -643.256     864.809
  C       61.526    -642.380     863.253
  O       60.898    -643.533     863.829
  O       58.416    -642.774     864.120
  O       59.418    -644.702     865.480
  H       58.525    -645.013     865.225
  H       62.333    -642.691     862.623
  H       61.904    -641.752     864.033
  H       60.810    -641.836     862.673

 6  7  8  9  10  11  12  13  14  15  16  27  31  32  33  34  35 0
 6-311+G(2d,p)
 ****
 36  37 0
 6-311+G(2d,p)
 ****
 1  2  3  4  5  17  18  19  20  21  22  23  24  25 0
 3-21G
 ****
 26  28  29  30  38  39  40  41  42  43  44  45 0
 3-21G
 ****


