%nproc=1
%NoSave
%Mem=1900MB
#P OB98/GEN NMR

erre ene a

0 1
  C       80.627     -84.825     407.305
  O       79.609     -85.649     407.837
  H       80.730     -85.009     406.232
  H       80.350     -83.777     407.460
  H       81.581     -85.017     407.809
  P       79.898     -87.227     407.871
  C       80.505     -87.382     410.396
  O       79.571     -87.699     409.373
  C       80.130     -88.093     411.699
  O       78.981     -87.422     412.281
  C       79.762     -89.570     411.507
  O       80.274     -90.320     412.611
  C       78.244     -89.562     411.547
  O       77.709     -90.820     411.948
  C       77.969     -88.423     412.526
  N       73.141     -88.543     414.184
  C       74.264     -89.141     414.633
  N       75.518     -89.052     414.136
  C       75.554     -88.201     413.091
  C       74.490     -87.517     412.521
  C       73.228     -87.719     413.108
  N       72.075     -87.139     412.635
  N       74.924     -86.767     411.440
  C       76.221     -86.996     411.366
  N       76.644     -87.862     412.337
  O       81.500     -87.281     407.803
  O       79.264     -88.027     406.785
  H       77.885     -91.469     411.235
  H       81.790     -87.155     406.876
  H       74.141     -89.786     415.497
  H       76.888     -86.575     410.625
  H       78.044     -88.742     413.576
  H       77.849     -89.323     410.551
  H       80.149     -89.985     410.577
  H       80.959     -87.977     412.413
  H       80.507     -86.299     410.555
  H       71.203     -87.387     413.084
  H       72.109     -86.573     411.800
  H       81.508     -87.697     410.079
  P       81.306     -91.501     412.270
  C       83.729     -90.781     412.859
  O       82.539     -91.422     413.297
  O       81.947     -91.038     410.873
  O       80.663     -92.846     412.154
  H       81.912     -91.773     410.233
  H       84.456     -90.805     413.643
  H       83.513     -89.765     412.603
  H       84.113     -91.291     412.000

 6  7  8  9  10  11  12  13  14  15  25  28  32  33  34  35 0
 6-311+G(2d,p)
 ****
 36  39  40 0
 6-311+G(2d,p)
 ****
 1  2  3  4  5  16  17  18  19  20  21  22  23  24 0
 3-21G
 ****
 26  27  29  30  31  37  38  41  42  43  44  45  46  47 0
 3-21G
 ****
 48 0
 3-21G
 ****


