%nproc=1
%NoSave
%Mem=1900MB
#P OB98/GEN NMR

erre ene a

0 1
  C     -913.878    -516.858     -25.698
  O     -915.031    -517.540     -26.152
  P     -914.926    -519.127     -26.363
  C     -915.714    -518.610     -28.816
  O     -914.888    -519.368     -27.944
  C     -914.928    -518.212     -30.076
  O     -913.795    -517.401     -29.710
  C     -914.350    -519.389     -30.861
  O     -915.349    -520.037     -31.638
  C     -913.264    -518.685     -31.669
  O     -913.846    -518.034     -32.825
  C     -912.748    -517.628     -30.674
  N     -911.498    -518.022     -30.021
  C     -910.367    -517.286     -30.373
  O     -910.388    -516.362     -31.175
  N     -909.190    -517.687     -29.772
  C     -909.040    -518.742     -28.930
  O     -907.964    -519.084     -28.455
  C     -910.267    -519.507     -28.632
  C     -911.422    -519.113     -29.167
  O     -916.389    -519.588     -25.913
  O     -913.805    -519.743     -25.586
  H     -917.048    -518.880     -26.054
  H     -914.538    -517.438     -32.489
  H     -908.365    -517.156     -29.990
  H     -910.187    -520.359     -27.965
  H     -912.329    -519.662     -28.966
  H     -912.588    -516.679     -31.187
  H     -912.504    -519.378     -32.040
  H     -913.890    -520.096     -30.165
  H     -915.591    -517.600     -30.701
  H     -916.056    -517.707     -28.296
  H     -916.593    -519.208     -29.086
  P     -915.786    -521.500     -31.130
  C     -915.200    -522.622     -33.410
  O     -914.972    -522.558     -32.026
  O     -917.301    -521.581     -31.708
  O     -915.687    -521.695     -29.652
  H     -917.370    -521.226     -32.600
  H     -914.342    -523.112     -33.875
  H     -915.330    -521.623     -33.855
  H     -916.086    -523.214     -33.617
  H     -914.095    -515.814     -25.604
  H     -913.083    -516.995     -26.400
  H     -913.584    -517.248     -24.746

 3  4  5  6  7  8  9  10  11  12  13  24  28  29  30  31  32 0
 6-311+G(2d,p)
 ****
 33  34 0
 6-311+G(2d,p)
 ****
 1  2  14  15  16  17  18  19  20  21  22  23  25  26  27 0
 3-21G
 ****
 35  36  37  38  39  40  41  42  43  44  45 0
 3-21G
 ****


