%nproc=1
%NoSave
%Mem=1900MB
#P OB98/GEN NMR

erre ene a

0 1
  C     -648.179    -463.563    -429.045
  O     -648.127    -462.971    -430.326
  H     -648.878    -464.405    -429.074
  H     -648.537    -462.835    -428.310
  H     -647.188    -463.931    -428.753
  P     -647.030    -461.821    -430.549
  C     -648.702    -460.440    -432.039
  O     -647.422    -461.052    -431.907
  C     -649.234    -460.643    -433.458
  O     -648.368    -460.043    -434.427
  C     -649.307    -462.103    -433.889
  O     -650.344    -462.810    -433.240
  C     -649.524    -461.935    -435.379
  O     -650.885    -461.616    -435.684
  C     -648.591    -460.728    -435.694
  N     -647.350    -461.132    -436.333
  C     -647.393    -461.237    -437.730
  O     -648.429    -460.993    -438.343
  N     -646.255    -461.657    -438.387
  C     -645.180    -461.911    -437.719
  N     -644.093    -462.326    -438.432
  C     -645.082    -461.787    -436.249
  C     -646.203    -461.406    -435.631
  O     -645.737    -462.650    -430.977
  O     -646.829    -460.908    -429.393
  H     -650.957    -461.626    -436.662
  H     -645.884    -463.260    -431.719
  H     -644.158    -462.005    -435.730
  H     -646.216    -461.292    -434.556
  H     -649.108    -460.011    -436.355
  H     -649.277    -462.848    -435.934
  H     -648.339    -462.589    -433.735
  H     -650.214    -460.151    -433.526
  H     -644.204    -462.420    -439.438
  H     -648.655    -459.378    -431.788
  H     -643.211    -462.594    -438.016
  H     -649.372    -460.922    -431.313
  P     -650.043    -464.219    -432.525
  C     -652.325    -464.742    -433.614
  O     -651.426    -465.040    -432.547
  O     -649.388    -464.131    -431.189
  O     -649.177    -465.008    -433.622
  H     -649.619    -465.143    -434.482
  H     -653.202    -465.347    -433.521
  H     -651.848    -464.947    -434.550
  H     -652.599    -463.708    -433.572

 6  7  8  9  10  11  12  13  14  15  16  26  30  31  32  33  35 0
 6-311+G(2d,p)
 ****
 37  38 0
 6-311+G(2d,p)
 ****
 1  2  3  4  5  17  18  19  20  21  22  23  24  25 0
 3-21G
 ****
 27  28  29  34  36  39  40  41  42  43  44  45  46 0
 3-21G
 ****


