%nproc=1
%NoSave
%Mem=1900MB
#P OB98/GEN NMR

erre ene a

0 1
  C     -156.295     -76.747     918.069
  O     -157.022     -76.553     916.872
  H     -155.960     -77.795     918.113
  H     -156.923     -76.551     918.946
  H     -155.413     -76.101     918.092
  P     -157.830     -75.176     916.702
  C     -156.207     -73.789     915.240
  O     -157.394     -74.595     915.269
  C     -155.745     -73.535     913.798
  O     -155.003     -74.680     913.309
  C     -156.905     -73.359     912.805
  O     -157.613     -72.147     912.984
  C     -156.223     -73.649     911.477
  O     -155.576     -72.509     910.897
  C     -155.164     -74.697     911.877
  N     -155.498     -76.037     911.379
  C     -154.977     -76.383     910.141
  O     -154.275     -75.630     909.471
  N     -155.311     -77.629     909.682
  C     -156.154     -78.509     910.286
  O     -156.444     -79.593     909.805
  C     -156.699     -78.069     911.598
  C     -156.364     -76.875     912.069
  O     -157.691     -74.191     917.823
  O     -159.334     -75.657     916.451
  H     -156.283     -71.928     910.552
  H     -159.969     -74.917     916.592
  H     -154.927     -77.900     908.788
  H     -157.372     -78.754     912.108
  H     -156.756     -76.535     913.016
  H     -154.180     -74.427     911.459
  H     -156.941     -74.009     910.733
  H     -157.619     -74.166     912.974
  H     -155.076     -72.671     913.796
  H     -155.423     -74.329     915.785
  H     -156.401     -72.840     915.748
  P     -159.163     -72.003     912.622
  C     -159.915     -72.487     915.076
  O     -159.950     -71.582     913.964
  O     -159.758     -73.058     911.748
  O     -159.167     -70.625     911.783
  H     -159.852     -70.695     911.094
  H     -160.477     -72.076     915.888
  H     -158.901     -72.636     915.383
  H     -160.341     -73.425     914.786

 6  7  8  9  10  11  12  13  14  15  16  26  31  32  33  34  35 0
 6-311+G(2d,p)
 ****
 36  37 0
 6-311+G(2d,p)
 ****
 1  2  3  4  5  17  18  19  20  21  22  23  24  25 0
 3-21G
 ****
 27  28  29  30  38  39  40  41  42  43  44  45 0
 3-21G
 ****


