%nproc=1
%NoSave
%Mem=1900MB
#P OB98/GEN NMR

erre ene a

0 1
  C       49.994     367.636      26.926
  O       49.412     367.165      28.128
  P       49.975     365.788      28.732
  C       48.906     366.260      31.056
  O       49.014     365.377      29.945
  C       47.762     365.820      31.969
  O       46.493     366.213      31.400
  C       47.662     364.313      32.177
  O       48.659     363.851      33.074
  C       46.232     364.197      32.694
  O       46.179     364.556      34.084
  C       45.499     365.254      31.846
  N       41.285     362.868      30.172
  C       41.663     363.274      31.404
  N       42.808     363.882      31.774
  C       43.609     364.072      30.714
  C       43.371     363.695      29.403
  C       42.144     363.066      29.141
  N       41.764     362.650      27.881
  N       44.434     364.033      28.594
  C       45.298     364.617      29.399
  N       44.836     364.679      30.687
  O       51.327     366.234      29.459
  O       50.215     364.713      27.716
  H       46.566     363.813      34.591
  H       52.004     365.533      29.398
  H       40.944     363.087      32.201
  H       46.258     365.016      29.097
  H       44.742     365.800      32.419
  H       45.819     363.189      32.599
  H       47.757     363.789      31.219
  H       47.883     366.329      32.934
  H       48.702     367.275      30.703
  H       40.937     362.080      27.809
  H       42.462     362.669      27.145
  H       49.858     366.271      31.597
  P       48.836     362.266      33.225
  C       51.362     362.449      33.678
  O       50.092     362.114      34.220
  O       49.467     361.874      31.809
  O       47.607     361.528      33.616
  H       50.209     362.455      31.561
  H       52.112     362.355      34.466
  H       51.359     363.481      33.314
  H       51.614     361.764      32.863
  H       49.527     368.555      26.640
  H       49.854     366.909      26.153
  H       51.041     367.799      27.077

 3  4  5  6  7  8  9  10  11  12  22  25  29  30  31  32 0
 6-311+G(2d,p)
 ****
 33  36  37 0
 6-311+G(2d,p)
 ****
 1  2  13  14  15  16  17  18  19  20  21  23  24  26 0
 3-21G
 ****
 27  28  34  35  38  39  40  41  42  43  44  45  46  47  48 0
 3-21G
 ****


