%nproc=1
%NoSave
%Mem=1900MB
#P OB98/GEN NMR

erre ene a

0 1
  C       22.771     -13.423     -65.871
  O       21.968     -14.366     -65.191
  H       22.834     -13.707     -66.925
  H       23.780     -13.408     -65.450
  H       22.322     -12.428     -65.799
  P       21.830     -14.193     -63.603
  C       23.502     -13.902     -61.633
  O       23.313     -14.259     -62.997
  C       24.770     -14.566     -61.102
  O       24.645     -16.005     -61.199
  C       26.027     -14.216     -61.886
  O       26.550     -12.944     -61.543
  C       26.949     -15.351     -61.471
  O       27.607     -15.073     -60.228
  C       25.979     -16.539     -61.334
  N       26.088     -17.460     -62.464
  C       26.804     -18.629     -62.221
  O       27.316     -18.894     -61.134
  N       26.945     -19.476     -63.287
  C       26.497     -19.245     -64.555
  O       26.707     -20.022     -65.480
  C       25.763     -17.986     -64.758
  C       25.598     -17.160     -63.720
  O       21.166     -15.574     -63.141
  O       21.028     -13.012     -63.167
  H       20.231     -15.429     -62.909
  H       27.854     -15.942     -59.853
  H       27.458     -20.329     -63.131
  H       25.393     -17.771     -65.753
  H       25.070     -16.220     -63.846
  H       26.187     -17.100     -60.416
  H       27.724     -15.515     -62.217
  H       25.836     -14.288     -62.964
  H       24.887     -14.298     -60.044
  H       22.647     -14.245     -61.041
  H       23.568     -12.811     -61.556
  P       26.897     -11.931     -62.740
  C       28.864     -11.808     -64.484
  O       28.213     -12.518     -63.441
  O       27.408     -10.661     -61.911
  O       25.740     -11.674     -63.644
  H       27.781     -10.918     -61.048
  H       29.716     -12.364     -64.816
  H       29.180     -10.852     -64.121
  H       28.186     -11.673     -65.301

 6  7  8  9  10  11  12  13  14  15  16  27  31  32  33  34  35 0
 6-311+G(2d,p)
 ****
 36  37 0
 6-311+G(2d,p)
 ****
 1  2  3  4  5  17  18  19  20  21  22  23  24  25 0
 3-21G
 ****
 26  28  29  30  38  39  40  41  42  43  44  45 0
 3-21G
 ****


