%nproc=1
%NoSave
%Mem=1900MB
#P OB98/GEN NMR

erre ene a

0 1
  C       54.285       8.852    -213.631
  O       54.743       8.218    -212.447
  P       56.329       8.034    -212.269
  C       55.999       7.918    -209.695
  O       56.560       7.316    -210.853
  C       56.439       7.181    -208.430
  O       55.793       5.877    -208.396
  C       57.954       6.946    -208.320
  O       58.287       7.036    -206.932
  C       58.091       5.521    -208.828
  O       59.319       4.902    -208.488
  C       56.839       4.895    -208.221
  N       58.057      -0.049    -208.697
  C       58.579       0.938    -207.932
  N       58.196       2.230    -207.853
  C       57.151       2.465    -208.666
  C       56.528       1.568    -209.515
  C       57.020       0.253    -209.512
  N       56.492      -0.750    -210.299
  N       55.509       2.179    -210.215
  C       55.519       3.429    -209.797
  N       56.479       3.643    -208.847
  O       56.839       9.528    -212.010
  O       57.026       7.397    -213.430
  H       60.052       5.316    -208.986
  H       57.692       9.691    -212.454
  H       59.415       0.651    -207.301
  H       54.866       4.213    -210.157
  H       56.952       4.713    -207.146
  H       58.028       5.526    -209.923
  H       58.547       7.677    -208.879
  H       56.079       7.744    -207.559
  H       54.907       7.873    -209.756
  H       57.037      -1.596    -210.374
  H       55.866      -0.469    -211.046
  H       56.289       8.973    -209.658
  P       59.076       8.331    -206.404
  C       57.827       8.344    -204.159
  O       59.071       8.163    -204.807
  O       57.965       9.468    -206.611
  O       60.382       8.611    -207.061
  H       57.111       9.210    -206.219
  H       57.949       8.104    -203.098
  H       57.074       7.677    -204.588
  H       57.506       9.385    -204.252
  H       53.217       8.907    -213.616
  H       54.601       8.287    -214.483
  H       54.692       9.840    -213.687

 3  4  5  6  7  8  9  10  11  12  22  25  29  30  31  32 0
 6-311+G(2d,p)
 ****
 33  36  37 0
 6-311+G(2d,p)
 ****
 1  2  13  14  15  16  17  18  19  20  21  23  24  26 0
 3-21G
 ****
 27  28  34  35  38  39  40  41  42  43  44  45  46  47  48 0
 3-21G
 ****


