%nproc=1
%NoSave
%Mem=1900MB
#P OB98/GEN NMR

erre ene a

0 1
  C      716.051     280.815     227.044
  O      715.541     279.668     226.345
  P      715.549     279.699     224.747
  C      717.378     277.845     224.610
  O      716.983     279.156     224.241
  C      718.292     277.245     223.541
  O      717.613     277.111     222.268
  C      719.523     278.070     223.245
  O      720.563     277.850     224.194
  C      719.939     277.527     221.881
  O      720.647     276.285     222.050
  C      718.594     277.284     221.209
  N      717.493     278.693     216.412
  C      717.937     277.528     216.933
  N      718.232     277.236     218.215
  C      717.994     278.297     219.006
  C      717.532     279.547     218.623
  C      717.267     279.725     217.256
  N      716.811     280.916     216.731
  N      717.415     280.380     219.711
  C      717.786     279.651     220.738
  N      718.154     278.380     220.362
  O      715.620     281.262     224.405
  O      714.364     279.047     224.115
  H      720.801     275.918     221.163
  H      715.121     281.446     223.585
  H      718.094     276.723     216.220
  H      717.810     279.991     221.774
  H      718.588     276.380     220.596
  H      720.607     278.210     221.349
  H      719.282     279.143     223.172
  H      718.602     276.234     223.873
  H      716.503     277.208     224.757
  H      716.621     280.961     215.742
  H      716.627     281.680     217.350
  H      717.893     277.884     225.573
  P      721.357     279.125     224.752
  C      720.853     278.527     227.223
  O      720.717     279.460     226.186
  O      720.839     280.307     223.796
  O      722.838     278.985     224.726
  H      721.535     280.985     223.695
  H      720.631     279.023     228.176
  H      721.871     278.126     227.263
  H      720.137     277.708     227.095
  H      715.982     280.650     228.099
  H      715.477     281.678     226.780
  H      717.075     280.971     226.774

 3  4  5  6  7  8  9  10  11  12  22  25  29  30  31  32 0
 6-311+G(2d,p)
 ****
 33  36  37 0
 6-311+G(2d,p)
 ****
 1  2  13  14  15  16  17  18  19  20  21  23  24  26 0
 3-21G
 ****
 27  28  34  35  38  39  40  41  42  43  44  45  46  47  48 0
 3-21G
 ****


