%nproc=1
%NoSave
%Mem=1900MB
#P OB98/GEN NMR

erre ene a

0 1
  C      -22.926     -44.962     -52.957
  O      -23.023     -46.210     -52.301
  H      -23.923     -44.587     -53.199
  H      -22.434     -44.250     -52.289
  H      -22.332     -45.058     -53.869
  P      -23.739     -47.389     -53.122
  C      -26.072     -47.181     -52.023
  O      -25.300     -47.013     -53.202
  C      -27.483     -46.640     -52.240
  O      -28.269     -46.940     -51.057
  C      -27.543     -45.123     -52.482
  O      -28.328     -44.830     -53.644
  C      -28.265     -44.581     -51.262
  O      -29.091     -43.461     -51.557
  C      -29.073     -45.783     -50.791
  N      -31.118     -42.779     -47.217
  C      -31.251     -42.785     -48.560
  N      -30.758     -43.671     -49.448
  C      -30.088     -44.652     -48.819
  C      -29.889     -44.793     -47.455
  C      -30.423     -43.784     -46.636
  N      -30.240     -43.748     -45.271
  N      -29.143     -45.924     -47.183
  C      -28.861     -46.433     -48.365
  N      -29.397     -45.690     -49.383
  O      -23.699     -48.622     -52.099
  O      -23.085     -47.729     -54.417
  H      -29.705     -43.731     -52.264
  H      -23.181     -49.346     -52.501
  H      -31.826     -41.964     -48.980
  H      -28.239     -47.302     -48.542
  H      -30.010     -45.889     -51.352
  H      -27.523     -44.279     -50.514
  H      -26.552     -44.675     -52.591
  H      -27.941     -47.180     -53.077
  H      -25.604     -46.633     -51.197
  H      -30.556     -42.930     -44.777
  H      -29.629     -44.433     -44.850
  H      -26.105     -48.244     -51.765
  P      -27.608     -45.066     -55.064
  C      -26.678     -42.674     -55.468
  O      -26.381     -44.034     -55.176
  O      -28.681     -44.511     -56.112
  O      -27.268     -46.493     -55.335
  H      -28.906     -45.207     -56.759
  H      -25.769     -42.112     -55.511
  H      -27.309     -42.274     -54.702
  H      -27.180     -42.613     -56.411

 6  7  8  9  10  11  12  13  14  15  25  28  32  33  34  35 0
 6-311+G(2d,p)
 ****
 36  39  40 0
 6-311+G(2d,p)
 ****
 1  2  3  4  5  16  17  18  19  20  21  22  23  24 0
 3-21G
 ****
 26  27  29  30  31  37  38  41  42  43  44  45  46  47  48 0
 3-21G
 ****


