%nproc=1
%NoSave
%Mem=1900MB
#P OB98/GEN NMR

erre ene a

0 1
  C     1070.848    -345.647     666.502
  O     1069.548    -346.146     666.203
  P     1069.333    -346.931     664.821
  C     1068.717    -349.303     665.600
  O     1069.730    -348.470     665.046
  C     1067.928    -350.020     664.480
  O     1068.774    -351.037     663.876
  C     1066.668    -350.751     664.936
  O     1065.441    -350.024     664.975
  C     1066.515    -351.814     663.848
  O     1065.845    -351.234     662.698
  C     1067.952    -352.146     663.473
  N     1071.947    -355.326     664.043
  C     1071.793    -354.169     663.350
  N     1070.708    -353.387     663.258
  C     1069.681    -353.892     663.968
  C     1069.690    -355.055     664.722
  C     1070.889    -355.802     664.741
  N     1071.039    -356.970     665.439
  N     1068.459    -355.255     665.330
  C     1067.719    -354.242     664.917
  N     1068.421    -353.383     664.105
  O     1069.919    -346.283     663.604
  O     1067.733    -346.999     664.720
  H     1064.878    -351.384     662.836
  H     1067.479    -346.892     663.770
  H     1072.682    -353.827     662.802
  H     1066.682    -354.101     665.160
  H     1068.083    -352.274     662.401
  H     1065.894    -352.663     664.170
  H     1066.826    -351.233     665.910
  H     1067.680    -349.290     663.706
  H     1068.031    -348.714     666.213
  H     1071.918    -357.467     665.373
  H     1070.237    -357.373     665.923
  H     1069.217    -350.030     666.282
  P     1064.541    -349.954     666.317
  C     1065.292    -347.644     667.275
  O     1065.367    -349.056     667.356
  O     1064.116    -351.273     666.855
  O     1063.342    -348.992     665.874
  H     1063.598    -348.069     665.735
  H     1065.752    -347.217     668.188
  H     1064.265    -347.309     667.226
  H     1065.853    -347.263     666.417
  H     1070.831    -345.152     667.450
  H     1071.147    -344.954     665.743
  H     1071.543    -346.460     666.537

 3  4  5  6  7  8  9  10  11  12  22  25  29  30  31  32 0
 6-311+G(2d,p)
 ****
 33  36  37 0
 6-311+G(2d,p)
 ****
 1  2  13  14  15  16  17  18  19  20  21  23  24  26 0
 3-21G
 ****
 27  28  34  35  38  39  40  41  42  43  44  45  46  47  48 0
 3-21G
 ****


