%nproc=1
%NoSave
%Mem=1900MB
#P OB98/GEN NMR

erre ene a

0 1
  C       75.324     235.143    -267.416
  O       75.688     235.013    -268.776
  H       74.952     236.156    -267.251
  H       76.189     234.975    -266.769
  H       74.527     234.434    -267.166
  P       76.306     233.620    -269.271
  C       78.557     234.866    -269.514
  O       77.615     233.990    -270.123
  C       79.861     234.877    -270.311
  O       80.539     233.615    -270.184
  C       79.677     235.115    -271.814
  O       79.525     236.495    -272.082
  C       80.986     234.556    -272.340
  O       82.050     235.502    -272.103
  C       81.184     233.316    -271.449
  N       82.052     229.188    -274.280
  C       82.841     230.300    -274.069
  N       84.015     230.338    -274.733
  N       82.506     231.297    -273.295
  C       81.277     231.161    -272.753
  C       80.390     230.116    -272.895
  C       80.804     228.989    -273.707
  O       80.146     227.973    -273.891
  N       79.201     230.372    -272.268
  C       79.378     231.546    -271.700
  N       80.623     232.078    -271.970
  O       75.362     232.696    -269.981
  O       76.911     232.962    -267.945
  H       82.884     235.067    -272.360
  H       76.259     232.381    -267.513
  H       82.361     228.456    -274.894
  H       78.651     232.065    -271.082
  H       82.245     233.121    -271.246
  H       80.962     234.365    -273.416
  H       84.262     229.678    -275.459
  H       78.849     234.522    -272.215
  H       84.587     231.171    -274.641
  H       80.516     235.643    -269.870
  H       78.736     234.502    -268.496
  H       78.152     235.881    -269.459
  P       78.119     237.104    -272.582
  C       78.817     237.788    -274.977
  O       78.506     238.224    -273.665
  O       77.222     237.579    -271.490
  O       77.499     235.951    -273.493
  H       76.991     235.278    -272.976
  H       79.054     238.634    -275.587
  H       77.975     237.274    -275.391
  H       79.657     237.126    -274.943

 6  7  8  9  10  11  12  13  14  15  26  29  33  34 0
 6-311+G(2d,p)
 ****
 36  38  39  40  41 0
 6-311+G(2d,p)
 ****
 1  2  3  4  5  16  17  18  19  20  21  22  23  24  25 0
 3-21G
 ****
 27  28  30  31  32  35  37  42  43  44  45  46  47 0
 3-21G
 ****
 48  49 0
 3-21G
 ****


