%nproc=1
%NoSave
%Mem=1900MB
#P OB98/GEN NMR

erre ene a

0 1
  C      554.309    -511.936    -351.470
  O      555.418    -511.954    -350.585
  P      555.851    -510.555    -349.921
  C      555.594    -511.217    -347.407
  O      555.089    -510.456    -348.504
  C      554.528    -511.343    -346.319
  O      553.288    -511.811    -346.886
  C      554.871    -512.329    -345.208
  O      555.829    -511.785    -344.317
  C      553.484    -512.546    -344.603
  O      553.136    -511.449    -343.747
  C      552.579    -512.544    -345.852
  N      549.399    -516.544    -345.416
  C      549.461    -515.357    -344.770
  N      550.344    -514.349    -344.926
  C      551.249    -514.662    -345.874
  C      551.331    -515.832    -346.606
  C      550.348    -516.808    -346.357
  N      550.304    -518.022    -347.020
  N      552.409    -515.802    -347.469
  C      552.955    -514.618    -347.276
  N      552.290    -513.890    -346.328
  O      555.089    -509.478    -350.817
  O      557.325    -510.308    -349.873
  H      553.845    -511.360    -343.079
  H      555.612    -508.654    -350.899
  H      548.686    -515.198    -344.020
  H      553.830    -514.243    -347.792
  H      551.620    -512.042    -345.675
  H      553.411    -513.466    -344.005
  H      555.236    -513.268    -345.629
  H      554.354    -510.335    -345.899
  H      556.475    -510.723    -346.991
  H      549.656    -518.714    -346.672
  H      551.081    -518.270    -347.606
  H      555.895    -512.212    -347.771
  P      557.338    -512.309    -344.456
  C      558.332    -509.934    -344.515
  O      558.080    -511.127    -345.258
  O      557.185    -513.444    -345.570
  O      557.980    -512.732    -343.175
  H      556.678    -513.139    -346.339
  H      558.885    -509.244    -345.156
  H      558.946    -510.158    -343.633
  H      557.395    -509.473    -344.216
  H      554.130    -512.925    -351.838
  H      554.519    -511.283    -352.291
  H      553.442    -511.587    -350.949

 3  4  5  6  7  8  9  10  11  12  22  25  29  30  31  32 0
 6-311+G(2d,p)
 ****
 33  36  37 0
 6-311+G(2d,p)
 ****
 1  2  13  14  15  16  17  18  19  20  21  23  24  26 0
 3-21G
 ****
 27  28  34  35  38  39  40  41  42  43  44  45  46  47  48 0
 3-21G
 ****


