%nproc=1
%NoSave
%Mem=1900MB
#P OB98/GEN NMR

erre ene a

0 1
  C       34.559    -203.835     -93.648
  O       35.561    -204.431     -92.850
  H       33.815    -204.595     -93.902
  H       34.999    -203.452     -94.571
  H       34.064    -203.024     -93.107
  P       36.643    -203.442     -92.196
  C       38.831    -203.700     -93.570
  O       38.081    -204.116     -92.438
  C       40.249    -204.263     -93.498
  O       40.936    -203.744     -92.337
  C       40.315    -205.781     -93.389
  O       40.193    -206.409     -94.659
  C       41.713    -205.959     -92.820
  O       42.689    -205.786     -93.866
  C       41.794    -204.801     -91.819
  N       43.162    -206.979     -87.452
  C       43.873    -206.824     -88.627
  N       45.123    -207.332     -88.646
  N       43.399    -206.232     -89.693
  C       42.130    -205.783     -89.534
  C       41.326    -205.873     -88.420
  C       41.865    -206.525     -87.247
  O       41.288    -206.667     -86.173
  N       40.105    -205.292     -88.634
  C       40.161    -204.868     -89.881
  N       41.368    -205.147     -90.474
  O       36.411    -203.628     -90.621
  O       36.526    -202.011     -92.596
  H       42.709    -206.619     -94.372
  H       36.554    -202.769     -90.179
  H       43.570    -207.453     -86.665
  H       39.362    -204.354     -90.397
  H       42.808    -204.390     -91.739
  H       41.872    -206.951     -92.394
  H       45.530    -207.844     -87.877
  H       39.579    -206.167     -92.674
  H       45.675    -207.203     -89.484
  H       40.794    -203.915     -94.384
  H       38.877    -202.607     -93.589
  H       38.331    -204.053     -94.477
  P       38.863    -207.262     -94.943
  C       39.926    -208.778     -96.766
  O       38.983    -207.754     -96.466
  O       37.722    -206.142     -95.006
  O       38.562    -208.316     -93.933
  H       36.852    -206.540     -94.808
  H       39.892    -208.999     -97.812
  H       39.686    -209.659     -96.208
  H       40.909    -208.446     -96.503

 6  7  8  9  10  11  12  13  14  15  26  29  33  34 0
 6-311+G(2d,p)
 ****
 36  38  39  40  41 0
 6-311+G(2d,p)
 ****
 1  2  3  4  5  16  17  18  19  20  21  22  23  24  25 0
 3-21G
 ****
 27  28  30  31  32  35  37  42  43  44  45  46  47 0
 3-21G
 ****
 48  49 0
 3-21G
 ****


