%nproc=1
%NoSave
%Mem=1900MB
#P OB98/GEN NMR

erre ene a

0 1
  C     -457.319     -11.734     716.554
  O     -457.258     -12.772     715.586
  P     -455.852     -13.285     715.016
  C     -455.525     -14.569     717.222
  O     -454.970     -13.617     716.317
  C     -455.027     -15.968     716.876
  O     -455.510     -16.312     715.555
  C     -453.512     -16.140     716.802
  O     -452.882     -16.383     718.056
  C     -453.409     -17.395     715.943
  O     -453.672     -18.561     716.746
  C     -454.538     -17.184     714.927
  N     -453.162     -18.085     710.085
  C     -453.621     -18.898     711.063
  N     -453.943     -18.588     712.331
  C     -453.802     -17.268     712.543
  C     -453.351     -16.315     711.650
  C     -453.019     -16.769     710.360
  N     -452.578     -15.930     709.360
  N     -453.317     -15.062     712.239
  C     -453.756     -15.265     713.467
  N     -454.071     -16.577     713.696
  O     -455.215     -12.380     714.020
  O     -456.172     -14.734     714.419
  H     -453.491     -19.338     716.187
  H     -455.456     -15.020     713.823
  H     -453.732     -19.946     710.790
  H     -453.858     -14.497     714.217
  H     -455.052     -18.117     714.674
  H     -452.417     -17.531     715.502
  H     -453.037     -15.304     716.278
  H     -455.465     -16.679     717.590
  H     -456.612     -14.537     717.129
  H     -452.486     -16.324     708.436
  H     -452.628     -14.931     709.518
  H     -455.257     -14.297     718.243
  P     -451.443     -15.708     718.297
  C     -451.963     -13.860     720.080
  O     -451.743     -14.189     718.725
  O     -450.482     -15.876     717.170
  O     -450.956     -16.388     719.660
  H     -451.468     -16.143     720.453
  H     -451.987     -12.769     720.175
  H     -451.159     -14.245     720.711
  H     -452.916     -14.265     720.417
  H     -458.341     -11.539     716.803
  H     -456.874     -10.847     716.154
  H     -456.788     -12.035     717.433

 3  4  5  6  7  8  9  10  11  12  22  25  29  30  31  32 0
 6-311+G(2d,p)
 ****
 33  36  37 0
 6-311+G(2d,p)
 ****
 1  2  13  14  15  16  17  18  19  20  21  23  24  26 0
 3-21G
 ****
 27  28  34  35  38  39  40  41  42  43  44  45  46  47  48 0
 3-21G
 ****


