%nproc=1
%NoSave
%Mem=1900MB
#P OB98/GEN NMR

erre ene a

0 1
  C       11.059       0.488    -123.700
  O       10.314       1.298    -124.590
  H       11.892       1.077    -123.308
  H       11.462      -0.384    -124.221
  H       10.434       0.167    -122.863
  P        9.055       0.651    -125.336
  C        9.781       1.960    -127.440
  O        8.713       1.628    -126.562
  C        9.440       3.216    -128.237
  O        8.446       2.922    -129.238
  C        8.877       4.360    -127.396
  O        9.923       5.074    -126.760
  C        8.181       5.178    -128.470
  O        9.159       5.927    -129.218
  C        7.571       4.078    -129.359
  N        2.672       5.399    -129.346
  C        3.788       6.140    -129.682
  N        3.570       7.424    -130.037
  N        5.007       5.669    -129.661
  C        5.081       4.393    -129.220
  C        4.051       3.563    -128.841
  C        2.700       4.076    -128.933
  O        1.681       3.443    -128.667
  N        4.519       2.366    -128.361
  C        5.828       2.453    -128.500
  N        6.222       3.669    -129.010
  O        7.874       0.325    -124.473
  O        9.648      -0.647    -126.059
  H        8.670       6.503    -129.833
  H        9.561      -1.436    -125.492
  H        1.758       5.818    -129.373
  H        6.534       1.670    -128.254
  H        7.551       4.367    -130.415
  H        7.468       5.896    -128.061
  H        2.678       7.884    -129.929
  H        8.129       4.002    -126.681
  H        4.381       7.999    -130.231
  H       10.347       3.532    -128.769
  H        9.931       1.110    -128.113
  H       10.704       2.124    -126.875
  P       10.563       4.571    -125.374
  C       10.242       6.691    -123.929
  O       11.144       5.889    -124.671
  O       11.538       3.453    -125.505
  O        9.301       4.234    -124.456
  H        8.951       3.320    -124.602
  H       10.765       7.530    -123.520
  H        9.820       6.112    -123.135
  H        9.460       7.037    -124.572

 6  7  8  9  10  11  12  13  14  15  26  29  33  34 0
 6-311+G(2d,p)
 ****
 36  38  39  40  41 0
 6-311+G(2d,p)
 ****
 1  2  3  4  5  16  17  18  19  20  21  22  23  24  25 0
 3-21G
 ****
 27  28  30  31  32  35  37  42  43  44  45  46  47 0
 3-21G
 ****
 48  49 0
 3-21G
 ****


