%nproc=1
%NoSave
%Mem=1900MB
#P OB98/GEN NMR

erre ene a

0 1
  C      -43.216      -1.705    -745.954
  O      -42.369      -0.682    -745.465
  P      -41.699       0.313    -746.535
  C      -39.613       0.973    -745.117
  O      -40.119       0.312    -746.268
  C      -38.184       0.498    -744.831
  O      -38.202      -0.735    -744.073
  C      -37.378       0.196    -746.091
  O      -36.894       1.386    -746.697
  C      -36.275      -0.698    -745.538
  O      -35.211       0.078    -744.982
  C      -37.026      -1.486    -744.442
  N      -37.351      -2.846    -744.836
  C      -36.512      -3.845    -744.330
  O      -35.540      -3.606    -743.617
  N      -36.813      -5.128    -744.709
  C      -37.799      -5.496    -745.585
  O      -37.987      -6.652    -745.936
  C      -38.637      -4.398    -746.109
  C      -38.372      -3.141    -745.723
  O      -42.169       1.771    -746.053
  O      -42.088       0.043    -747.953
  H      -34.740       0.495    -745.732
  H      -42.320       2.343    -746.834
  H      -36.236      -5.863    -744.350
  H      -39.440      -4.660    -746.793
  H      -38.965      -2.322    -746.112
  H      -36.400      -1.537    -743.528
  H      -35.842      -1.337    -746.318
  H      -37.997      -0.378    -746.795
  H      -37.677       1.266    -744.221
  H      -40.258       0.751    -744.257
  H      -39.631       2.057    -745.285
  P      -36.233       1.244    -748.159
  C      -35.362       3.695    -748.397
  O      -35.057       2.329    -748.185
  O      -37.400       1.860    -749.068
  O      -35.861      -0.159    -748.492
  H      -37.892       2.569    -748.607
  H      -36.306       3.983    -747.927
  H      -35.407       3.902    -749.460
  H      -34.558       4.297    -747.960
  H      -43.586      -2.284    -745.134
  H      -42.664      -2.338    -746.617
  H      -44.038      -1.266    -746.481

 3  4  5  6  7  8  9  10  11  12  13  23  28  29  30  31  32 0
 6-311+G(2d,p)
 ****
 33  34 0
 6-311+G(2d,p)
 ****
 1  2  14  15  16  17  18  19  20  21  22  24  25  26 0
 3-21G
 ****
 27  35  36  37  38  39  40  41  42  43  44  45 0
 3-21G
 ****


