%nproc=1
%NoSave
%Mem=1900MB
#P OB98/GEN NMR

erre ene a

0 1
  C       68.383     -61.395      79.884
  O       67.137     -62.060      80.037
  P       65.961     -61.300      80.822
  C       64.463     -59.265      80.242
  O       65.718     -59.905      80.063
  C       64.637     -57.767      80.491
  O       65.346     -57.575      81.745
  C       65.429     -57.030      79.406
  O       64.892     -55.704      79.315
  C       66.828     -56.960      79.990
  O       67.610     -55.929      79.395
  C       66.497     -56.749      81.466
  N       70.916     -55.193      83.510
  C       70.033     -54.571      82.699
  N       68.878     -55.052      82.198
  C       68.668     -56.313      82.611
  C       69.495     -57.086      83.408
  C       70.672     -56.475      83.874
  N       71.567     -57.101      84.707
  N       68.954     -58.342      83.593
  C       67.823     -58.328      82.919
  N       67.596     -57.116      82.330
  O       66.676     -60.866      82.185
  O       64.741     -62.114      81.082
  H       68.052     -56.297      78.607
  H       66.301     -61.371      82.934
  H       70.286     -53.552      82.423
  H       67.140     -59.161      82.825
  H       66.226     -55.708      81.683
  H       67.344     -57.912      79.829
  H       65.405     -57.518      78.426
  H       63.643     -57.320      80.611
  H       63.965     -59.708      81.110
  H       72.312     -56.554      85.107
  H       71.301     -57.983      85.135
  H       63.838     -59.432      79.360
  P       64.960     -54.990      77.881
  C       64.163     -55.695      75.517
  O       64.613     -56.110      76.793
  O       66.525     -54.726      77.673
  O       64.171     -53.725      77.793
  H       66.658     -53.952      77.095
  H       64.521     -56.407      74.768
  H       64.527     -54.697      75.259
  H       63.069     -55.690      75.507
  H       69.059     -62.024      79.344
  H       68.792     -61.177      80.849
  H       68.237     -60.483      79.344

 3  4  5  6  7  8  9  10  11  12  22  25  29  30  31  32 0
 6-311+G(2d,p)
 ****
 33  36  37 0
 6-311+G(2d,p)
 ****
 1  2  13  14  15  16  17  18  19  20  21  23  24  26 0
 3-21G
 ****
 27  28  34  35  38  39  40  41  42  43  44  45  46  47  48 0
 3-21G
 ****


