%nproc=1
%NoSave
%Mem=1900MB
#P OB98/GEN NMR

erre ene a

0 1
  C     1112.844     287.137     381.321
  O     1113.873     288.083     381.394
  P     1114.534     288.368     382.857
  C     1116.318     286.480     383.114
  O     1116.061     287.848     382.751
  C     1117.213     285.830     382.078
  O     1116.509     285.731     380.800
  C     1118.518     286.546     381.775
  O     1119.523     286.253     382.736
  C     1118.872     285.946     380.423
  O     1119.452     284.634     380.599
  C     1117.491     285.822     379.742
  N     1118.522     288.034     375.244
  C     1119.062     286.975     375.882
  N     1118.751     286.443     377.081
  C     1117.789     287.176     377.681
  C     1117.155     288.329     377.160
  C     1117.562     288.736     375.910
  N     1116.993     289.827     375.251
  N     1116.235     288.797     378.079
  C     1116.277     287.962     379.067
  N     1117.185     286.943     378.881
  O     1113.815     287.281     383.774
  O     1114.355     289.755     383.354
  H     1118.902     284.172     381.267
  H     1113.839     287.581     384.712
  H     1119.855     286.452     375.337
  H     1115.662     288.011     379.955
  H     1117.398     284.921     379.160
  H     1119.595     286.545     379.875
  H     1118.356     287.613     381.670
  H     1117.391     284.790     382.422
  H     1115.381     285.945     383.203
  H     1117.220     289.945     374.294
  H     1116.153     290.230     375.649
  H     1116.818     286.488     384.118
  P     1120.559     287.429     383.085
  C     1119.210     288.133     385.196
  O     1120.446     287.626     384.665
  O     1119.839     288.742     382.459
  O     1121.914     287.205     382.525
  H     1120.496     289.397     382.252
  H     1119.198     287.906     386.282
  H     1118.350     287.624     384.746
  H     1119.141     289.192     385.046
  H     1112.508     287.053     380.309
  H     1112.030     287.447     381.943
  H     1113.208     286.188     381.656

 3  4  5  6  7  8  9  10  11  12  22  25  29  30  31  32 0
 6-311+G(2d,p)
 ****
 33  36  37 0
 6-311+G(2d,p)
 ****
 1  2  13  14  15  16  17  18  19  20  21  23  24  26 0
 3-21G
 ****
 27  28  34  35  38  39  40  41  42  43  44  45  46  47  48 0
 3-21G
 ****


