%nproc=1
%NoSave
%Mem=1900MB
#P OB98/GEN NMR

erre ene a

0 1
  C     -364.196    -151.261     300.923
  O     -364.387    -152.568     301.417
  H     -364.929    -151.073     300.132
  H     -363.194    -151.164     300.496
  H     -364.337    -150.522     301.716
  P     -363.522    -153.008     302.696
  C     -363.150    -155.375     301.695
  O     -363.626    -154.608     302.790
  C     -363.584    -156.837     301.839
  O     -364.935    -156.976     301.327
  C     -362.687    -157.819     301.080
  O     -362.544    -159.005     301.869
  C     -363.485    -158.138     299.826
  O     -363.146    -159.408     299.266
  C     -364.926    -158.025     300.340
  N     -365.861    -157.751     299.249
  C     -365.943    -158.713     298.240
  O     -365.237    -159.723     298.286
  N     -366.769    -158.483     297.168
  C     -367.397    -157.352     297.077
  N     -368.179    -157.171     295.976
  C     -367.288    -156.278     298.086
  C     -366.518    -156.547     299.136
  O     -364.408    -152.509     303.931
  O     -362.130    -152.474     302.740
  H     -363.631    -159.508     298.420
  H     -363.846    -152.254     304.688
  H     -367.807    -155.346     297.950
  H     -366.372    -155.821     299.927
  H     -365.231    -158.952     300.840
  H     -363.291    -157.372     299.067
  H     -361.701    -157.415     300.851
  H     -363.619    -157.082     302.908
  H     -368.211    -157.922     295.299
  H     -362.057    -155.329     301.674
  H     -368.674    -156.311     295.775
  H     -363.537    -154.954     300.761
  P     -361.118    -159.736     301.815
  C     -361.373    -162.321     301.952
  O     -361.223    -161.098     302.662
  O     -360.188    -158.799     302.714
  O     -360.577    -159.894     300.429
  H     -359.558    -158.315     302.148
  H     -361.428    -163.133     302.647
  H     -360.533    -162.463     301.304
  H     -362.270    -162.288     301.370

 6  7  8  9  10  11  12  13  14  15  16  26  30  31  32  33  35 0
 6-311+G(2d,p)
 ****
 37  38 0
 6-311+G(2d,p)
 ****
 1  2  3  4  5  17  18  19  20  21  22  23  24  25 0
 3-21G
 ****
 27  28  29  34  36  39  40  41  42  43  44  45  46 0
 3-21G
 ****


