%nproc=1
%NoSave
%Mem=1900MB
#P OB98/GEN NMR

erre ene a

0 1
  C     -397.129     100.170    -139.993
  O     -397.465      98.809    -139.836
  H     -397.531     100.522    -140.947
  H     -396.042     100.285    -140.007
  H     -397.554     100.779    -139.190
  P     -397.284      98.130    -138.399
  C     -395.208      96.795    -139.154
  O     -395.733      97.752    -138.246
  C     -393.855      96.265    -138.664
  O     -392.869      97.324    -138.764
  C     -393.915      95.851    -137.187
  O     -392.974      94.826    -136.881
  C     -393.511      97.126    -136.466
  O     -392.998      96.890    -135.154
  C     -392.484      97.710    -137.435
  N     -390.877     101.716    -134.720
  C     -390.968     100.387    -134.349
  N     -390.573     100.088    -133.087
  N     -391.423      99.446    -135.132
  C     -391.845      99.900    -136.337
  C     -391.828     101.191    -136.811
  C     -391.289     102.222    -135.946
  O     -391.207     103.415    -136.217
  N     -392.350     101.266    -138.078
  C     -392.685     100.027    -138.369
  N     -392.376      99.153    -137.353
  O     -397.973      96.693    -138.573
  O     -397.875      98.886    -137.246
  H     -393.624      96.297    -134.699
  H     -398.233      96.336    -137.705
  H     -390.489     102.395    -134.089
  H     -393.139      99.704    -139.298
  H     -391.488      97.293    -137.240
  H     -394.399      97.754    -136.356
  H     -390.406     100.806    -132.399
  H     -394.907      95.526    -136.881
  H     -390.921      99.206    -132.700
  H     -393.514      95.451    -139.312
  H     -395.097      97.297    -140.119
  H     -395.915      95.976    -139.294
  P     -393.508      93.329    -136.684
  C     -392.820      92.984    -134.148
  O     -393.820      93.064    -135.140
  O     -392.222      92.425    -136.975
  O     -394.661      92.965    -137.567
  H     -392.363      91.876    -137.768
  H     -393.275      92.801    -133.197
  H     -392.278      93.906    -134.113
  H     -392.149      92.184    -134.382

 6  7  8  9  10  11  12  13  14  15  26  29  33  34 0
 6-311+G(2d,p)
 ****
 36  38  39  40  41 0
 6-311+G(2d,p)
 ****
 1  2  3  4  5  16  17  18  19  20  21  22  23  24  25 0
 3-21G
 ****
 27  28  30  31  32  35  37  42  43  44  45  46  47 0
 3-21G
 ****
 48  49 0
 3-21G
 ****


