%nproc=1
%NoSave
%Mem=1900MB
#P OB98/GEN NMR

erre ene a

0 1
  C       10.104     -69.702     -20.391
  O        9.154     -69.389     -19.397
  H        9.992     -68.997     -21.219
  H        9.930     -70.713     -20.769
  H       11.119     -69.623     -19.994
  P        9.237     -70.198     -18.014
  C        7.464     -71.862     -18.924
  O        7.852     -70.999     -17.866
  C        6.532     -72.956     -18.403
  O        7.289     -73.845     -17.542
  C        5.345     -72.421     -17.598
  O        4.193     -73.212     -17.902
  C        5.753     -72.656     -16.156
  O        4.634     -72.768     -15.278
  C        6.605     -73.926     -16.277
  N        7.539     -74.053     -15.162
  C        6.988     -74.348     -13.912
  O        5.769     -74.479     -13.788
  N        7.818     -74.430     -12.824
  C        9.078     -74.155     -12.956
  N        9.845     -74.225     -11.834
  C        9.692     -73.772     -14.242
  C        8.874     -73.749     -15.294
  O        9.117     -69.052     -16.906
  O       10.458     -71.036     -17.836
  H        3.969     -73.354     -15.700
  H        9.620     -69.283     -16.102
  H       10.742     -73.527     -14.297
  H        9.233     -73.473     -16.278
  H        5.965     -74.818     -16.303
  H        6.369     -71.818     -15.808
  H        5.127     -71.369     -17.799
  H        6.188     -73.554     -19.255
  H        9.383     -74.473     -10.967
  H        8.358     -72.330     -19.348
  H       10.825     -73.988     -11.810
  H        6.967     -71.278     -19.706
  P        3.239     -72.676     -19.073
  C        1.444     -71.807     -17.410
  O        1.735     -72.646     -18.519
  O        3.233     -73.880     -20.126
  O        3.711     -71.402     -19.694
  H        3.745     -73.633     -20.918
  H        0.408     -71.895     -17.159
  H        1.665     -70.791     -17.664
  H        2.040     -72.103     -16.572

 6  7  8  9  10  11  12  13  14  15  16  26  30  31  32  33  35 0
 6-311+G(2d,p)
 ****
 37  38 0
 6-311+G(2d,p)
 ****
 1  2  3  4  5  17  18  19  20  21  22  23  24  25 0
 3-21G
 ****
 27  28  29  34  36  39  40  41  42  43  44  45  46 0
 3-21G
 ****


