%nproc=1
%NoSave
%Mem=1900MB
#P OB98/GEN NMR

erre ene a

0 1
  C     -359.284    -297.520       0.244
  O     -359.850    -297.197      -1.009
  H     -358.197    -297.462       0.160
  H     -359.560    -298.535       0.535
  H     -359.617    -296.809       1.007
  P     -361.444    -297.269      -1.178
  C     -363.171    -299.118      -1.695
  O     -361.824    -298.820      -1.342
  C     -363.343    -300.627      -1.903
  O     -362.664    -300.986      -3.130
  C     -362.730    -301.453      -0.758
  O     -363.649    -302.392      -0.198
  C     -361.437    -301.988      -1.366
  O     -360.974    -303.187      -0.788
  C     -361.768    -302.077      -2.861
  N     -360.592    -302.012      -3.726
  C     -359.706    -303.087      -3.689
  O     -359.844    -304.090      -2.995
  N     -358.611    -302.981      -4.513
  C     -358.318    -301.928      -5.328
  O     -357.323    -301.893      -6.045
  C     -359.276    -300.811      -5.302
  C     -360.347    -300.899      -4.515
  O     -362.023    -296.372      -2.221
  O     -362.007    -296.914       0.280
  H     -360.094    -303.375      -1.176
  H     -362.363    -296.002       0.278
  H     -357.974    -303.757      -4.507
  H     -359.063    -299.953      -5.930
  H     -361.075    -300.094      -4.470
  H     -362.287    -303.014      -3.081
  H     -360.650    -301.233      -1.218
  H     -362.484    -300.810       0.094
  H     -364.407    -300.848      -2.037
  H     -363.402    -298.579      -2.621
  H     -363.844    -298.773      -0.900
  P     -364.443    -302.195       1.172
  C     -364.449    -303.497       3.460
  O     -363.733    -303.073       2.304
  O     -365.931    -302.291       1.080
  O     -364.080    -300.682       1.606
  H     -364.863    -300.342       2.084
  H     -363.801    -304.069       4.091
  H     -365.281    -304.100       3.163
  H     -364.802    -302.640       3.995

 6  7  8  9  10  11  12  13  14  15  16  26  31  32  33  34  35 0
 6-311+G(2d,p)
 ****
 36  37 0
 6-311+G(2d,p)
 ****
 1  2  3  4  5  17  18  19  20  21  22  23  24  25 0
 3-21G
 ****
 27  28  29  30  38  39  40  41  42  43  44  45 0
 3-21G
 ****


