%nproc=1
%NoSave
%Mem=1900MB
#P OB98/GEN NMR

erre ene a

0 1
  C       -5.357    -506.005    -167.006
  O       -5.988    -507.257    -167.282
  P       -7.013    -507.821    -166.188
  C       -7.116    -509.867    -164.597
  O       -6.299    -509.030    -165.397
  C       -6.566    -509.992    -163.168
  O       -5.186    -510.464    -163.192
  C       -6.580    -508.681    -162.383
  O       -6.811    -509.002    -161.007
  C       -5.154    -508.181    -162.530
  O       -4.830    -507.218    -161.524
  C       -4.389    -509.505    -162.457
  N        0.337    -507.711    -161.680
  C       -0.792    -507.660    -160.928
  N       -2.022    -508.146    -161.217
  C       -2.003    -508.771    -162.412
  C       -0.945    -508.891    -163.289
  C        0.272    -508.323    -162.889
  N        1.415    -508.344    -163.661
  N       -1.335    -509.563    -164.433
  C       -2.621    -509.830    -164.252
  N       -3.058    -509.402    -163.030
  O       -8.123    -508.565    -167.076
  O       -7.626    -506.768    -165.328
  H       -3.866    -507.009    -161.599
  H       -8.952    -508.049    -167.073
  H       -0.694    -507.159    -159.960
  H       -3.257    -510.318    -164.961
  H       -4.271    -509.863    -161.421
  H       -5.025    -507.708    -163.513
  H       -7.313    -507.949    -162.735
  H       -7.160    -510.751    -162.635
  H       -7.197    -510.860    -165.040
  H        2.245    -507.889    -163.311
  H        1.370    -508.755    -164.578
  H       -8.147    -509.468    -164.590
  P       -8.171    -508.431    -160.358
  C       -8.760    -506.422    -158.821
  O       -7.749    -507.180    -159.441
  O       -8.580    -509.559    -159.288
  O       -9.261    -508.173    -161.344
  H       -9.531    -509.541    -159.133
  H       -8.431    -506.157    -157.812
  H       -9.702    -506.975    -158.751
  H       -8.925    -505.507    -159.392
  H       -4.703    -505.750    -167.813
  H       -4.792    -506.082    -166.100
  H       -6.103    -505.246    -166.897

 3  4  5  6  7  8  9  10  11  12  22  25  29  30  31  32 0
 6-311+G(2d,p)
 ****
 33  36  37 0
 6-311+G(2d,p)
 ****
 1  2  13  14  15  16  17  18  19  20  21  23  24  26 0
 3-21G
 ****
 27  28  34  35  38  39  40  41  42  43  44  45  46  47  48 0
 3-21G
 ****


