%nproc=1
%NoSave
%Mem=1900MB
#P OB98/GEN NMR

erre ene a

0 1
  C      124.728    -119.534    -668.793
  O      124.903    -119.765    -667.410
  H      123.773    -119.965    -669.099
  H      125.531    -120.011    -669.361
  H      124.716    -118.461    -668.995
  P      126.310    -119.306    -666.781
  C      125.630    -116.837    -666.284
  O      126.370    -117.730    -667.102
  C      126.441    -115.566    -666.030
  O      127.624    -115.867    -665.258
  C      126.950    -114.882    -667.296
  O      125.953    -114.131    -667.970
  C      128.018    -113.985    -666.693
  O      127.394    -112.874    -666.023
  C      128.671    -114.949    -665.682
  N      129.804    -115.692    -666.249
  C      130.875    -114.932    -666.733
  O      130.844    -113.704    -666.677
  N      131.944    -115.576    -667.300
  C      131.956    -116.869    -667.362
  N      133.038    -117.458    -667.941
  C      130.858    -117.712    -666.856
  C      129.828    -117.067    -666.317
  O      127.387    -119.912    -667.798
  O      126.538    -119.662    -665.352
  H      126.935    -112.359    -666.708
  H      128.288    -119.561    -667.586
  H      130.909    -118.793    -666.942
  H      128.979    -117.622    -665.922
  H      129.018    -114.413    -664.791
  H      128.701    -113.570    -667.431
  H      127.428    -115.593    -667.976
  H      125.819    -114.890    -665.431
  H      133.749    -116.848    -668.333
  H      125.412    -117.340    -665.336
  H      133.077    -118.440    -668.173
  H      124.689    -116.574    -666.771
  P      126.295    -113.618    -669.454
  C      125.308    -115.472    -670.993
  O      126.460    -114.924    -670.366
  O      127.789    -113.071    -669.314
  O      125.358    -112.575    -669.987
  H      127.938    -112.303    -669.901
  H      125.587    -116.335    -671.561
  H      124.874    -114.741    -671.644
  H      124.595    -115.753    -670.246

 6  7  8  9  10  11  12  13  14  15  16  26  30  31  32  33  35 0
 6-311+G(2d,p)
 ****
 37  38 0
 6-311+G(2d,p)
 ****
 1  2  3  4  5  17  18  19  20  21  22  23  24  25 0
 3-21G
 ****
 27  28  29  34  36  39  40  41  42  43  44  45  46 0
 3-21G
 ****


