%nproc=1
%NoSave
%Mem=1900MB
#P OB98/GEN NMR

erre ene a

0 1
  C     -982.459    -428.538    -893.340
  O     -983.148    -428.656    -892.120
  H     -982.771    -427.608    -893.840
  H     -982.697    -429.381    -894.000
  H     -981.379    -428.492    -893.160
  P     -982.906    -430.016    -891.300
  C     -983.264    -432.507    -891.990
  O     -983.603    -431.143    -892.210
  C     -984.427    -433.410    -892.410
  O     -985.042    -432.915    -893.630
  C     -984.063    -434.862    -892.690
  O     -983.847    -435.626    -891.510
  C     -985.286    -435.297    -893.450
  O     -986.383    -435.497    -892.530
  C     -985.538    -434.072    -894.360
  N     -984.858    -434.180    -895.660
  C     -985.553    -434.850    -896.680
  O     -986.665    -435.309    -896.460
  N     -984.945    -434.999    -897.900
  C     -983.764    -434.498    -898.110
  N     -983.211    -434.689    -899.330
  C     -982.999    -433.777    -897.070
  C     -983.615    -433.654    -895.870
  O     -983.923    -429.889    -890.050
  O     -981.487    -430.312    -890.910
  H     -987.142    -435.818    -893.080
  H     -983.948    -430.744    -889.570
  H     -982.015    -433.394    -897.290
  H     -983.101    -433.126    -895.080
  H     -986.605    -433.923    -894.540
  H     -985.146    -436.238    -893.980
  H     -983.186    -434.901    -893.350
  H     -985.203    -433.344    -891.610
  H     -983.734    -435.242    -900.000
  H     -983.055    -432.645    -890.940
  H     -982.239    -434.466    -899.540
  H     -982.382    -432.775    -892.580
  P     -982.740    -436.791    -891.590
  C     -982.312    -438.840    -893.130
  O     -983.193    -437.782    -892.760
  O     -983.014    -437.628    -890.240
  O     -981.323    -436.299    -891.680
  H     -982.168    -437.983    -889.900
  H     -982.753    -439.411    -893.920
  H     -982.140    -439.473    -892.285
  H     -981.382    -438.429    -893.463

 6  7  8  9  10  11  12  13  14  15  16  26  30  31  32  33  35 0
 6-311+G(2d,p)
 ****
 37  38 0
 6-311+G(2d,p)
 ****
 1  2  3  4  5  17  18  19  20  21  22  23  24  25 0
 3-21G
 ****
 27  28  29  34  36  39  40  41  42  43  44  45  46 0
 3-21G
 ****


