%nproc=1
%NoSave
%Mem=1900MB
#P OB98/GEN NMR

erre ene a

0 1
  C     -138.907      55.109     244.547
  O     -138.898      56.104     245.548
  H     -139.818      55.217     243.954
  H     -138.908      54.120     245.013
  H     -138.044      55.201     243.884
  P     -137.512      56.472     246.255
  C     -137.482      56.147     248.816
  O     -137.338      55.528     247.544
  C     -136.914      55.275     249.937
  O     -137.512      53.960     249.878
  C     -135.401      55.078     249.816
  O     -134.624      56.093     250.432
  C     -135.200      53.734     250.513
  O     -135.004      53.908     251.928
  C     -136.514      52.992     250.242
  N     -137.254      48.139     248.815
  C     -137.380      48.703     250.073
  N     -137.704      47.853     251.072
  N     -137.182      49.971     250.314
  C     -136.765      50.675     249.238
  C     -136.586      50.221     247.948
  C     -136.874      48.828     247.674
  O     -136.795      48.285     246.574
  N     -136.113      51.213     247.124
  C     -135.922      52.236     247.935
  N     -136.381      51.981     249.208
  O     -137.802      57.908     246.917
  O     -136.322      56.545     245.344
  H     -135.069      53.029     252.350
  H     -136.982      58.431     246.931
  H     -137.447      47.161     248.686
  H     -135.506      53.194     247.644
  H     -136.879      52.482     251.142
  H     -134.312      53.224     250.134
  H     -137.784      46.856     250.958
  H     -135.107      54.963     248.768
  H     -137.622      48.187     252.036
  H     -137.186      55.708     250.909
  H     -138.552      56.300     248.967
  H     -137.004      57.130     248.816
  P     -133.694      57.056     249.562
  C     -131.557      55.547     249.806
  O     -132.492      56.195     248.966
  O     -132.983      57.965     250.665
  O     -134.399      57.875     248.532
  H     -133.432      58.830     250.747
  H     -130.838      55.028     249.206
  H     -132.067      54.848     250.435
  H     -131.058      56.274     250.412

 6  7  8  9  10  11  12  13  14  15  26  29  33  34 0
 6-311+G(2d,p)
 ****
 36  38  39  40  41 0
 6-311+G(2d,p)
 ****
 1  2  3  4  5  16  17  18  19  20  21  22  23  24  25 0
 3-21G
 ****
 27  28  30  31  32  35  37  42  43  44  45  46  47 0
 3-21G
 ****
 48  49 0
 3-21G
 ****


