%nproc=1
%NoSave
%Mem=1900MB
#P OB98/GEN NMR

erre ene a

0 1
  C     -776.528    -593.551    -165.827
  O     -776.661    -594.397    -166.942
  H     -777.077    -593.993    -164.987
  H     -776.960    -592.567    -166.036
  H     -775.477    -593.448    -165.543
  P     -775.989    -593.972    -168.339
  C     -778.112    -594.263    -169.754
  O     -776.816    -594.770    -169.468
  C     -778.931    -595.269    -170.572
  O     -778.424    -595.306    -171.932
  C     -778.875    -596.699    -170.017
  O     -780.197    -597.247    -169.967
  C     -778.047    -597.453    -171.047
  O     -778.312    -598.850    -171.061
  C     -778.419    -596.694    -172.326
  N     -777.487    -596.958    -173.413
  C     -777.540    -598.244    -173.967
  O     -778.346    -599.070    -173.540
  N     -776.645    -598.576    -174.951
  C     -775.745    -597.716    -175.317
  N     -774.872    -598.116    -176.279
  C     -775.637    -596.364    -174.735
  C     -776.533    -596.052    -173.800
  O     -774.509    -594.143    -168.395
  O     -776.454    -592.455    -168.571
  H     -777.983    -599.221    -171.909
  H     -775.822    -592.023    -169.190
  H     -774.864    -595.684    -175.071
  H     -776.535    -595.079    -173.319
  H     -779.431    -596.954    -172.658
  H     -776.982    -597.308    -170.828
  H     -778.430    -596.759    -169.024
  H     -779.964    -594.903    -170.636
  H     -774.976    -599.058    -176.639
  H     -778.003    -593.319    -170.303
  H     -774.112    -597.545    -176.623
  H     -778.625    -594.074    -168.805
  P     -780.544    -598.150    -168.687
  C     -782.061    -600.003    -169.690
  O     -781.987    -598.809    -168.924
  O     -780.791    -597.071    -167.532
  O     -779.458    -599.106    -168.324
  H     -780.060    -597.106    -166.883
  H     -783.081    -600.319    -169.760
  H     -781.482    -600.768    -169.215
  H     -781.675    -599.822    -170.671

 6  7  8  9  10  11  12  13  14  15  16  26  30  31  32  33  35 0
 6-311+G(2d,p)
 ****
 37  38 0
 6-311+G(2d,p)
 ****
 1  2  3  4  5  17  18  19  20  21  22  23  24  25 0
 3-21G
 ****
 27  28  29  34  36  39  40  41  42  43  44  45  46 0
 3-21G
 ****


