%nproc=1
%NoSave
%Mem=1900MB
#P OB98/GEN NMR

erre ene a

0 1
  C      266.531     349.870    -460.605
  O      267.836     349.642    -461.120
  P      268.240     348.136    -461.494
  C      270.308     348.206    -459.938
  O      269.821     348.018    -461.262
  C      271.799     348.507    -459.941
  O      272.517     347.335    -460.414
  C      272.207     349.687    -460.840
  O      273.171     350.497    -460.149
  C      272.922     349.020    -462.004
  O      273.852     349.896    -462.632
  C      273.548     347.821    -461.292
  N      277.585     346.002    -463.720
  C      277.517     346.935    -462.704
  N      278.683     347.502    -462.333
  N      276.403     347.281    -462.116
  C      275.317     346.610    -462.572
  C      275.260     345.655    -463.566
  C      276.496     345.321    -464.256
  O      276.610     344.569    -465.214
  N      273.985     345.189    -463.739
  C      273.265     345.859    -462.857
  N      274.022     346.771    -462.162
  O      268.083     348.114    -463.080
  O      267.405     347.073    -460.849
  H      273.341     350.645    -462.989
  H      267.468     347.400    -463.349
  H      278.468     345.780    -464.145
  H      272.196     345.744    -462.708
  H      274.394     348.149    -460.672
  H      272.181     348.705    -462.749
  H      279.579     347.256    -462.716
  H      271.370     350.311    -461.177
  H      278.654     348.178    -461.574
  H      272.124     348.677    -458.905
  H      270.124     347.300    -459.355
  H      269.760     349.040    -459.475
  P      272.703     352.002    -459.809
  C      274.884     352.994    -460.851
  O      274.057     352.860    -459.703
  O      272.205     351.895    -458.289
  O      271.654     352.533    -460.727
  H      271.562     352.608    -458.096
  H      274.398     352.609    -461.756
  H      275.814     352.449    -460.681
  H      275.113     354.055    -460.993
  H      266.405     350.913    -460.403
  H      266.402     349.313    -459.701
  H      265.804     349.556    -461.324

 3  4  5  6  7  8  9  10  11  12  23  26  30  31  33  0
 6-311+G(2d,p)
 ****
 35  36  37  38 0
 6-311+G(2d,p)
 ****
 1  2  13  14  15  16  17  18  19  20  21  22  24  25  27  28  29 0
 3-21G
 ****
 32  34  39  40  41  42  43  44  45  46  47  48  49 0
 3-21G
 ****


