%nproc=1
%NoSave
%Mem=1900MB
#P OB98/GEN NMR

erre ene a

0 1
  C      169.093     876.023     344.228
  O      170.352     875.391     344.361
  H      169.163     877.036     344.638
  H      168.328     875.473     344.781
  H      168.812     876.092     343.172
  P      170.505     873.889     343.832
  C      169.080     872.656     345.599
  O      170.389     872.949     345.130
  C      169.121     871.474     346.559
  O      169.540     870.279     345.871
  C      170.090     871.666     347.730
  O      169.492     872.459     348.744
  C      170.303     870.219     348.156
  O      169.155     869.756     348.895
  C      170.378     869.508     346.792
  N      174.124     866.367     345.462
  C      172.917     866.094     346.070
  N      172.699     864.807     346.415
  N      172.019     867.000     346.338
  C      172.405     868.260     346.003
  C      173.587     868.651     345.407
  C      174.547     867.627     345.060
  O      175.629     867.820     344.501
  N      173.650     870.012     345.278
  C      172.504     870.441     345.751
  N      171.713     869.416     346.226
  O      171.713     873.599     342.986
  O      169.142     873.607     343.053
  H      169.069     870.344     349.673
  H      169.226     873.813     342.105
  H      174.781     865.624     345.301
  H      172.185     871.482     345.784
  H      169.969     868.493     346.827
  H      171.178     870.079     348.785
  H      173.454     864.136     346.493
  H      171.052     872.072     347.400
  H      171.840     864.596     346.913
  H      168.105     871.301     346.925
  H      168.465     872.414     344.726
  H      168.654     873.529     346.104
  P      169.969     873.973     348.999
  C      172.276     873.352     349.992
  O      170.984     873.885     350.243
  O      168.864     874.961     349.164
  O      170.948     874.295     347.776
  H      170.482     874.654     346.980
  H      172.844     873.351     350.899
  H      172.774     873.953     349.260
  H      172.184     872.350     349.628

 6  7  8  9  10  11  12  13  14  15  26  29  33  34 0
 6-311+G(2d,p)
 ****
 36  38  39  40  41 0
 6-311+G(2d,p)
 ****
 1  2  3  4  5  16  17  18  19  20  21  22  23  24  25 0
 3-21G
 ****
 27  28  30  31  32  35  37  42  43  44  45  46  47 0
 3-21G
 ****
 48  49 0
 3-21G
 ****


