%nproc=1
%NoSave
%Mem=1900MB
#P OB98/GEN NMR

erre ene a

0 1
  C      122.959     199.360    -370.389
  O      123.935     200.353    -370.153
  H      122.018     199.631    -369.904
  H      122.788     199.282    -371.466
  H      123.304     198.393    -370.017
  P      124.305     200.653    -368.621
  C      126.183     198.943    -368.102
  O      125.860     200.286    -368.433
  C      127.687     198.812    -367.872
  O      127.954     197.493    -367.332
  C      128.547     198.992    -369.135
  O      129.483     200.059    -368.948
  C      129.321     197.688    -369.256
  O      130.678     197.875    -369.654
  C      129.222     197.089    -367.858
  N      132.318     193.209    -369.012
  C      132.578     194.496    -368.700
  N      131.717     195.453    -368.299
  C      130.471     194.961    -368.203
  C      130.056     193.667    -368.464
  C      131.043     192.768    -368.905
  N      130.767     191.471    -369.276
  N      128.693     193.539    -368.264
  C      128.287     194.747    -367.930
  N      129.323     195.643    -367.899
  O      123.547     199.488    -367.825
  O      123.911     202.004    -368.127
  H      131.020     196.995    -369.905
  H      123.056     199.870    -367.073
  H      133.616     194.803    -368.793
  H      127.261     195.038    -367.747
  H      130.005     197.467    -367.190
  H      128.828     197.050    -369.998
  H      127.946     199.178    -370.032
  H      127.980     199.540    -367.105
  H      125.892     198.282    -368.926
  H      131.512     190.934    -369.691
  H      129.804     191.170    -369.303
  H      125.625     198.651    -367.207
  P      129.562     201.160    -370.119
  C      128.283     202.971    -368.755
  O      129.484     202.605    -369.423
  O      128.141     201.020    -370.841
  O      130.695     200.955    -371.068
  H      128.209     201.299    -371.773
  H      128.387     203.955    -368.347
  H      128.088     202.276    -367.965
  H      127.470     202.958    -369.450

 6  7  8  9  10  11  12  13  14  15  25  28  32  33  34  35 0
 6-311+G(2d,p)
 ****
 36  39  40 0
 6-311+G(2d,p)
 ****
 1  2  3  4  5  16  17  18  19  20  21  22  23  24 0
 3-21G
 ****
 26  27  29  30  31  37  38  41  42  43  44  45  46  47  48 0
 3-21G
 ****


