%nproc=1
%NoSave
%Mem=1900MB
#P OB98/GEN NMR

erre ene a

0 1
  C      944.485     -49.761    -214.074
  O      945.805     -50.246    -213.914
  H      943.836     -50.594    -214.358
  H      944.443     -49.002    -214.860
  H      944.118     -49.341    -213.134
  P      946.971     -49.188    -213.608
  C      948.082     -49.115    -215.945
  O      947.279     -48.432    -214.993
  C      948.322     -48.239    -217.178
  O      948.637     -46.887    -216.732
  C      949.486     -48.710    -218.062
  O      949.184     -48.319    -219.418
  C      950.643     -47.892    -217.508
  O      951.750     -47.917    -218.373
  C      949.939     -46.556    -217.282
  N      950.688     -45.668    -216.407
  C      951.689     -44.903    -217.016
  O      951.905     -45.002    -218.231
  N      952.444     -44.057    -216.237
  C      952.259     -44.041    -214.950
  N      953.049     -43.201    -214.239
  C      951.255     -44.883    -214.264
  C      950.511     -45.660    -215.045
  O      948.171     -49.733    -212.908
  O      946.246     -48.057    -212.732
  H      951.482     -47.676    -219.285
  H      946.510     -48.149    -211.799
  H      951.161     -44.843    -213.186
  H      949.750     -46.309    -214.636
  H      949.759     -46.034    -218.234
  H      950.974     -48.304    -216.557
  H      949.642     -49.795    -218.008
  H      947.389     -48.175    -217.751
  H      953.735     -42.656    -214.746
  H      947.552     -50.021    -216.237
  H      953.018     -43.120    -213.233
  H      949.041     -49.395    -215.499
  P      948.592     -49.340    -220.496
  C      950.987     -50.075    -221.131
  O      949.670     -50.499    -220.785
  O      948.070     -48.675    -221.725
  O      947.417     -50.124    -219.739
  H      946.724     -50.358    -220.384
  H      951.605     -50.932    -221.298
  H      951.395     -49.491    -220.333
  H      950.949     -49.484    -222.022

 6  7  8  9  10  11  12  13  14  15  16  26  30  31  32  33  35 0
 6-311+G(2d,p)
 ****
 37  38 0
 6-311+G(2d,p)
 ****
 1  2  3  4  5  17  18  19  20  21  22  23  24  25 0
 3-21G
 ****
 27  28  29  34  36  39  40  41  42  43  44  45  46 0
 3-21G
 ****


