%nproc=1
%NoSave
%Mem=1900MB
#P OB98/GEN NMR

erre ene a

0 1
  C      597.154    -899.043    -469.400
  O      598.200    -898.143    -469.016
  P      599.099    -898.513    -467.744
  C      601.527    -898.233    -468.660
  O      600.487    -899.123    -468.270
  C      601.970    -898.513    -470.105
  O      600.907    -898.263    -471.050
  C      603.134    -897.643    -470.567
  O      604.365    -898.173    -470.126
  C      602.999    -897.803    -472.087
  O      603.581    -899.033    -472.503
  C      601.485    -897.803    -472.286
  N      600.775    -894.353    -476.014
  C      601.399    -895.563    -475.989
  N      601.564    -896.403    -474.961
  C      600.977    -895.923    -473.862
  C      600.299    -894.723    -473.707
  C      600.204    -893.903    -474.855
  N      599.555    -892.693    -474.869
  N      599.844    -894.553    -472.420
  C      600.234    -895.653    -471.792
  N      600.925    -896.513    -472.609
  O      598.341    -899.783    -467.134
  O      599.220    -897.413    -466.742
  H      604.537    -898.983    -472.288
  H      598.425    -899.783    -466.169
  H      601.833    -895.863    -476.946
  H      600.035    -895.873    -470.755
  H      601.177    -898.503    -473.075
  H      603.543    -896.993    -472.621
  H      602.992    -896.593    -470.271
  H      602.243    -899.583    -470.163
  H      602.385    -898.323    -467.985
  H      599.504    -892.183    -475.715
  H      599.112    -892.383    -474.010
  H      601.165    -897.193    -468.554
  P      605.201    -897.293    -469.067
  C      606.452    -898.913    -467.474
  O      605.283    -898.173    -467.745
  O      604.186    -896.113    -468.695
  O      606.503    -896.773    -469.581
  H      604.664    -895.303    -468.460
  H      606.462    -899.203    -466.408
  H      607.339    -898.313    -467.669
  H      606.490    -899.813    -468.084
  H      596.649    -898.657    -470.261
  H      596.457    -899.145    -468.594
  H      597.574    -900.000    -469.632

 3  4  5  6  7  8  9  10  11  12  22  25  29  30  31  32 0
 6-311+G(2d,p)
 ****
 33  36  37 0
 6-311+G(2d,p)
 ****
 1  2  13  14  15  16  17  18  19  20  21  23  24  26 0
 3-21G
 ****
 27  28  34  35  38  39  40  41  42  43  44  45  46  47  48 0
 3-21G
 ****


