%nproc=1
%NoSave
%Mem=1900MB
#P OB98/GEN NMR

erre ene a

0 1
  C     -254.920     -73.439      28.558
  O     -253.793     -73.954      29.240
  H     -255.595     -74.266      28.325
  H     -254.613     -72.958      27.625
  H     -255.445     -72.722      29.194
  P     -252.655     -72.899      29.644
  C     -251.951     -73.776      31.962
  O     -251.647     -73.738      30.573
  C     -250.840     -74.490      32.733
  O     -250.707     -75.836      32.208
  C     -249.477     -73.806      32.609
  O     -248.793     -73.893      33.858
  C     -248.750     -74.643      31.572
  O     -247.334     -74.565      31.705
  C     -249.334     -76.031      31.829
  N     -246.125     -78.578      28.789
  C     -245.942     -77.943      29.967
  N     -246.860     -77.301      30.721
  C     -248.082     -77.399      30.167
  C     -248.421     -78.009      28.973
  C     -247.372     -78.617      28.261
  N     -247.544     -79.243      27.049
  N     -249.771     -77.858      28.719
  C     -250.240     -77.182      29.751
  N     -249.252     -76.867      30.643
  O     -253.140     -71.614      30.225
  O     -251.835     -72.767      28.277
  H     -247.077     -73.620      31.719
  H     -251.684     -73.639      27.866
  H     -244.926     -77.944      30.352
  H     -251.274     -76.885      29.889
  H     -248.818     -76.561      32.638
  H     -249.014     -74.292      30.566
  H     -249.559     -72.762      32.305
  H     -251.145     -74.588      33.781
  H     -252.902     -74.295      32.127
  H     -246.739     -79.666      26.614
  H     -248.469     -79.298      26.648
  H     -252.053     -72.745      32.313
  P     -249.311     -72.990      35.077
  C     -247.506     -74.344      36.330
  O     -248.291     -73.157      36.306
  O     -250.756     -73.123      35.421
  O     -248.985     -71.504      34.567
  H     -249.700     -70.906      34.856
  H     -246.872     -74.335      37.192
  H     -246.905     -74.392      35.446
  H     -248.151     -75.197      36.370

 6  7  8  9  10  11  12  13  14  15  25  28  32  33  34  35 0
 6-311+G(2d,p)
 ****
 36  39  40 0
 6-311+G(2d,p)
 ****
 1  2  3  4  5  16  17  18  19  20  21  22  23  24 0
 3-21G
 ****
 26  27  29  30  31  37  38  41  42  43  44  45  46  47 0
 3-21G
 ****
 48 0
 3-21G
 ****


