%nproc=1
%NoSave
%Mem=1900MB
#P OB98/GEN NMR

erre ene a

0 1
  C      332.436    -241.438     -21.153
  O      333.844    -241.704     -21.264
  P      334.396    -242.478     -22.558
  C      336.912    -241.853     -22.260
  O      335.939    -242.879     -22.358
  C      338.161    -242.338     -21.501
  O      337.862    -242.471     -20.084
  C      338.704    -243.694     -21.974
  O      340.129    -243.660     -21.808
  C      338.086    -244.661     -20.983
  O      338.762    -245.908     -20.917
  C      338.176    -243.828     -19.699
  N      337.298    -244.282     -18.621
  C      337.819    -245.170     -17.686
  O      338.950    -245.646     -17.733
  N      336.966    -245.533     -16.670
  C      335.669    -245.141     -16.529
  O      334.949    -245.525     -15.615
  C      335.163    -244.227     -17.563
  C      335.986    -243.847     -18.544
  O      334.494    -241.294     -23.635
  O      333.523    -243.573     -23.074
  H      338.243    -246.486     -20.328
  H      334.114    -241.589     -24.484
  H      337.334    -246.164     -15.974
  H      334.137    -243.887     -17.484
  H      335.638    -243.164     -19.313
  H      339.213    -243.821     -19.340
  H      337.047    -244.862     -21.270
  H      338.450    -243.919     -23.016
  H      338.932    -241.563     -21.590
  H      336.485    -240.997     -21.727
  H      337.191    -241.529     -23.269
  P      341.053    -243.616     -23.122
  C      343.238    -243.577     -21.677
  O      342.490    -244.188     -22.706
  O      341.308    -242.032     -23.239
  O      340.425    -244.203     -24.342
  H      341.537    -241.627     -22.387
  H      342.598    -243.287     -20.839
  H      343.744    -242.688     -22.068
  H      343.987    -244.283     -21.320
  H      332.242    -240.919     -20.237
  H      331.897    -242.362     -21.160
  H      332.121    -240.835     -21.979

 3  4  5  6  7  8  9  10  11  12  13  23  28  29  30  31  32 0
 6-311+G(2d,p)
 ****
 33  34 0
 6-311+G(2d,p)
 ****
 1  2  14  15  16  17  18  19  20  21  22  24  25  26 0
 3-21G
 ****
 27  35  36  37  38  39  40  41  42  43  44  45 0
 3-21G
 ****


