%nproc=1
%NoSave
%Mem=1900MB
#P OB98/GEN NMR

erre ene a

0 1
  C     -397.013     830.165      84.584
  O     -395.790     830.589      85.145
  H     -397.677     831.025      84.480
  H     -397.496     829.430      85.242
  H     -396.855     829.717      83.596
  P     -394.604     829.509      85.192
  C     -393.101     831.624      85.098
  O     -393.280     830.309      85.610
  C     -392.117     832.407      85.979
  O     -390.870     831.685      86.094
  C     -391.766     833.786      85.437
  O     -392.746     834.762      85.776
  C     -390.453     834.048      86.178
  O     -390.740     834.422      87.538
  C     -389.793     832.658      86.137
  N     -385.149     833.405      84.249
  C     -385.681     833.778      85.470
  N     -384.861     834.452      86.309
  N     -386.906     833.518      85.833
  C     -387.617     832.844      84.894
  C     -387.195     832.427      83.648
  C     -385.836     832.717      83.253
  O     -385.308     832.389      82.203
  N     -388.191     831.773      82.982
  C     -389.229     831.807      83.813
  N     -388.922     832.461      84.980
  O     -394.352     829.167      83.644
  O     -394.887     828.272      85.979
  H     -391.397     835.149      87.503
  H     -394.120     828.223      83.564
  H     -384.199     833.650      84.007
  H     -390.198     831.386      83.610
  H     -389.192     832.458      87.026
  H     -389.877     834.854      85.732
  H     -383.922     834.732      86.064
  H     -391.564     833.759      84.356
  H     -385.217     834.702      87.224
  H     -392.555     832.479      86.976
  H     -394.065     832.146      85.091
  H     -392.714     831.556      84.067
  P     -393.396     835.615      84.579
  C     -395.394     836.008      86.184
  O     -394.472     836.579      85.279
  O     -394.300     834.542      83.819
  O     -392.413     836.270      83.665
  H     -394.447     834.817      82.888
  H     -396.040     836.771      86.564
  H     -394.863     835.554      86.995
  H     -395.977     835.266      85.679

 6  7  8  9  10  11  12  13  14  15  26  29  33  34 0
 6-311+G(2d,p)
 ****
 36  38  39  40  41 0
 6-311+G(2d,p)
 ****
 1  2  3  4  5  16  17  18  19  20  21  22  23  24  25 0
 3-21G
 ****
 27  28  30  31  32  35  37  42  43  44  45  46  47 0
 3-21G
 ****
 48  49 0
 3-21G
 ****


