%nproc=1
%NoSave
%Mem=1900MB
#P OB98/GEN NMR

erre ene a

0 1
  C      148.849    -261.422    -293.922
  O      147.532    -261.508    -293.417
  H      149.295    -262.420    -293.900
  H      149.445    -260.754    -293.303
  H      148.838    -261.067    -294.958
  P      146.690    -260.138    -293.382
  C      144.658    -259.512    -294.889
  O      145.268    -260.470    -294.042
  C      143.962    -260.203    -296.068
  O      144.974    -260.862    -296.890
  C      142.956    -261.285    -295.653
  O      141.941    -261.362    -296.668
  C      143.818    -262.538    -295.692
  O      143.018    -263.701    -295.658
  C      144.613    -262.261    -296.970
  N      147.603    -264.728    -300.305
  C      146.522    -263.941    -300.476
  N      145.785    -263.305    -299.543
  C      146.276    -263.540    -298.311
  C      147.373    -264.306    -297.973
  C      148.055    -264.929    -299.042
  N      149.155    -265.739    -298.860
  N      147.578    -264.312    -296.600
  C      146.617    -263.550    -296.125
  N      145.800    -263.067    -297.113
  O      147.423    -259.232    -294.486
  O      146.626    -259.456    -292.057
  H      142.372    -263.662    -294.922
  H      148.077    -258.650    -294.055
  H      146.203    -263.804    -301.511
  H      146.451    -263.325    -295.073
  H      143.999    -262.397    -297.867
  H      144.483    -262.583    -294.820
  H      142.485    -261.094    -294.686
  H      143.485    -259.440    -296.704
  H      145.437    -258.829    -295.261
  H      143.920    -258.931    -294.319
  H      149.575    -266.161    -299.679
  H      149.494    -265.911    -297.925
  P      140.389    -261.290    -296.242
  C      138.174    -260.329    -297.259
  O      139.576    -260.528    -297.395
  O      140.419    -260.197    -295.070
  O      139.795    -262.570    -295.755
  H      139.687    -260.364    -294.456
  H      137.803    -259.807    -298.116
  H      137.979    -259.752    -296.379
  H      137.685    -261.277    -297.179

 6  7  8  9  10  11  12  13  14  15  25  28  32  33  34  35 0
 6-311+G(2d,p)
 ****
 36  37  40 0
 6-311+G(2d,p)
 ****
 1  2  3  4  5  16  17  18  19  20  21  22  23  24 0
 3-21G
 ****
 26  27  29  30  31  38  39 41  42  43  44  45  46  47  48 0
 3-21G
 ****


