%nproc=1
%NoSave
%Mem=1900MB
#P OB98/GEN NMR

erre ene a

0 1
  C      442.986     877.208     831.758
  O      444.318     876.804     832.021
  H      442.880     877.364     830.679
  H      442.753     878.139     832.279
  H      442.290     876.419     832.069
  P      444.699     876.556     833.557
  C      446.518     875.022     832.537
  O      446.207     876.010     833.511
  C      447.932     874.483     832.761
  O      448.154     874.224     834.165
  C      448.227     873.171     832.023
  O      448.598     873.419     830.685
  C      449.408     872.643     832.841
  O      450.605     873.289     832.418
  C      449.048     873.092     834.281
  N      449.720     869.684     838.064
  C      450.594     870.412     837.353
  N      450.370     871.261     836.321
  C      449.046     871.316     836.051
  C      448.028     870.624     836.699
  C      448.407     869.776     837.757
  N      447.506     869.020     838.483
  N      446.797     870.928     836.149
  C      447.068     871.839     835.232
  N      448.414     872.087     835.112
  O      443.728     875.736     834.346
  O      444.899     878.060     834.079
  H      450.829     872.950     831.524
  H      445.362     878.593     833.405
  H      451.642     870.305     837.648
  H      446.315     872.365     834.635
  H      449.936     873.431     834.825
  H      449.551     871.567     832.729
  H      447.388     872.464     832.113
  H      448.649     875.264     832.454
  H      446.443     875.459     831.515
  H      447.879     868.298     839.070
  H      446.542     868.998     838.155
  H      445.784     874.215     832.623
  P      447.826     872.713     829.460
  C      448.891     874.360     827.792
  O      448.742     872.982     828.175
  O      446.389     873.081     829.339
  O      448.054     871.137     829.725
  H      447.397     870.619     829.204
  H      449.518     874.424     826.928
  H      449.335     874.908     828.597
  H      447.930     874.773     827.567

 6  7  8  9  10  11  12  13  14  15  25  28  32  33  34  35 0
 6-311+G(2d,p)
 ****
 36  39  40 0
 6-311+G(2d,p)
 ****
 1  2  3  4  5  16  17  18  19  20  21  22  23  24 0
 3-21G
 ****
 26  27  29  30  31  37  38  41  42  43  44  45  46  47 0
 3-21G
 ****
 48 0
 3-21G
 ****


