%nproc=1
%NoSave
%Mem=1900MB
#P OB98/GEN NMR

erre ene a

0 1
  C     -933.720      79.273    -590.348
  O     -934.369      80.474    -590.748
  P     -934.582      80.821    -592.305
  C     -933.180      82.079    -594.075
  O     -933.200      81.485    -592.790
  C     -931.744      82.468    -594.471
  O     -931.281      83.503    -593.572
  C     -930.730      81.299    -594.376
  O     -929.789      81.477    -595.420
  C     -930.090      81.512    -593.023
  O     -928.823      80.884    -592.923
  C     -930.055      83.035    -592.960
  N     -929.930      83.546    -591.604
  C     -928.831      84.370    -591.320
  O     -927.987      84.631    -592.193
  N     -928.686      84.868    -590.057
  C     -929.532      84.533    -589.118
  N     -929.389      85.116    -587.890
  C     -930.646      83.592    -589.350
  C     -930.790      83.155    -590.597
  O     -935.813      81.624    -592.600
  O     -934.553      79.385    -593.039
  H     -928.285      81.127    -593.707
  H     -935.418      78.928    -593.033
  H     -931.298      83.312    -588.528
  H     -931.588      82.478    -590.861
  H     -929.236      83.431    -593.584
  H     -930.735      81.086    -592.228
  H     -931.219      80.314    -594.497
  H     -931.761      82.874    -595.482
  H     -928.734      85.880    -587.838
  H     -933.791      82.989    -594.058
  H     -930.170      85.162    -587.232
  H     -933.624      81.407    -594.819
  P     -929.381      80.199    -596.335
  C     -927.693      78.229    -596.125
  O     -928.281      79.366    -595.522
  O     -928.497      80.889    -597.482
  O     -930.499      79.430    -596.938
  H     -928.537      80.324    -598.277
  H     -926.967      77.787    -595.430
  H     -927.176      78.501    -597.046
  H     -928.472      77.482    -596.353
  H     -933.678      79.229    -589.280
  H     -932.727      79.255    -590.745
  H     -934.267      78.431    -590.718

 3  4  5  6  7  8  9  10  11  12  13  23  27  28  29  30  32 0
 6-311+G(2d,p)
 ****
 34  35 0
 6-311+G(2d,p)
 ****
 1  2  14  15  16  17  18  19  20  21  22  24  25  26 0
 3-21G
 ****
 31  33  36  37  38  39  40  41  42  43  44  45  46 0
 3-21G
 ****


