%nproc=1
%NoSave
%Mem=1900MB
#P OB98/GEN NMR

erre ene a

0 1
  C        6.802     -16.548       4.610
  O        6.333     -16.385       3.269
  P        7.055     -15.276       2.364
  C        8.588     -16.961       1.103
  O        8.503     -15.821       1.951
  C        9.767     -16.815       0.139
  O        9.569     -15.709      -0.761
  C       11.082     -16.526       0.842
  O       11.616     -17.708       1.405
  C       11.925     -15.946      -0.287
  O       12.649     -16.969      -0.990
  C       10.871     -15.289      -1.207
  N       10.977     -13.840      -1.238
  C       11.729     -13.304      -2.288
  O       12.273     -14.049      -3.105
  N       11.865     -11.942      -2.369
  C       11.321     -11.186      -1.466
  N       11.496      -9.844      -1.596
  C       10.543     -11.713      -0.328
  C       10.414     -13.037      -0.274
  O        7.384     -14.108       3.408
  O        6.218     -14.780       1.231
  H       13.332     -17.286      -0.363
  H        7.336     -13.240       2.970
  H       10.116     -11.044       0.404
  H        9.859     -13.513       0.528
  H       10.981     -15.656      -2.235
  H       12.668     -15.239       0.092
  H       10.932     -15.766       1.620
  H        9.851     -17.739      -0.449
  H       12.036      -9.516      -2.387
  H        7.660     -17.082       0.542
  H       11.123      -9.165      -0.949
  H        8.697     -17.855       1.726
  P       11.914     -17.717       2.977
  C       10.851     -20.053       3.013
  O       10.867     -18.764       3.594
  O       11.290     -16.315       3.445
  O       13.334     -17.865       3.406
  H       11.493     -16.154       4.383
  H       10.260     -20.717       3.648
  H       11.865     -20.453       2.935
  H       10.389     -20.009       2.023
  H        6.235     -17.315       5.095
  H        6.686     -15.627       5.143
  H        7.836     -16.823       4.595

 3  4  5  6  7  8  9  10  11  12  13  21  23  27  28  29  30  32 0
 6-311+G(2d,p)
 ****
 34  35 0
 6-311+G(2d,p)
 ****
 1  2  14  15  16  17  18  19  20  22  24  25  26 0
 3-21G
 ****
 31  33  36  37  38  39  40  41  42  43  44  45  46 0
 3-21G
 ****


