%nproc=1
%NoSave
%Mem=1900MB
#P OB98/GEN NMR

erre ene a

0 1
  C     -307.481     164.189     -88.159
  O     -306.506     163.216     -87.837
  P     -304.987     163.705     -87.679
  C     -304.497     164.062     -90.217
  O     -304.659     164.650     -88.934
  C     -303.319     164.723     -90.942
  O     -303.548     166.139     -91.090
  C     -301.998     164.599     -90.191
  O     -301.421     163.318     -90.361
  C     -301.184     165.723     -90.817
  O     -300.585     165.296     -92.054
  C     -302.263     166.794     -91.073
  N     -302.222     167.883     -90.100
  C     -301.094     168.699     -90.145
  O     -300.170     168.517     -90.943
  N     -301.050     169.707     -89.226
  C     -301.965     169.944     -88.244
  O     -301.843     170.830     -87.409
  C     -303.124     169.030     -88.221
  C     -303.193     168.052     -89.132
  O     -304.125     162.385     -87.963
  O     -304.663     164.308     -86.353
  H     -299.840     165.908     -92.228
  H     -303.328     162.383     -87.395
  H     -300.252     170.328     -89.259
  H     -303.873     169.186     -87.458
  H     -304.029     167.360     -89.122
  H     -302.134     167.227     -92.079
  H     -300.370     166.058     -90.165
  H     -302.153     164.821     -89.125
  H     -303.233     164.280     -91.943
  H     -305.411     164.204     -90.798
  H     -304.323     162.987     -90.102
  P     -300.544     162.744     -89.144
  C     -298.099     163.236     -89.942
  O     -299.203     163.627     -89.148
  O     -300.110     161.317     -89.733
  O     -301.297     162.688     -87.858
  H     -300.000     161.341     -90.698
  H     -298.426     162.786     -90.884
  H     -297.490     162.521     -89.387
  H     -297.498     164.122     -90.163
  H     -308.441     163.722     -88.232
  H     -307.234     164.645     -89.095
  H     -307.505     164.936     -87.394

 3  4  5  6  7  8  9  10  11  12  13  23  28  29  30  31  32 0
 6-311+G(2d,p)
 ****
 33  34 0
 6-311+G(2d,p)
 ****
 1  2  14  15  16  17  18  19  20  21  22  24  25  26 0
 3-21G
 ****
 27  35  36  37  38  39  40  41  42  43  44  45 0
 3-21G
 ****


