%nproc=1
%NoSave
%Mem=1900MB
#P OB98/GEN NMR

erre ene a

0 1
  C      876.387     559.857    -199.851
  O      875.458     558.901    -199.373
  H      876.430     560.682    -199.139
  H      876.059     560.253    -200.818
  H      877.385     559.419    -199.942
  P      875.274     557.527    -200.197
  C      872.773     557.230    -199.694
  O      874.079     556.723    -199.479
  C      871.801     556.654    -198.670
  O      871.621     555.236    -198.938
  C      872.276     556.782    -197.215
  O      871.137     557.066    -196.391
  C      872.826     555.419    -196.882
  O      872.765     555.129    -195.488
  C      871.924     554.509    -197.725
  N      871.155     549.552    -198.307
  C      870.257     550.570    -198.071
  N      868.954     550.212    -197.933
  N      870.593     551.822    -197.963
  C      871.923     552.035    -198.128
  C      872.909     551.112    -198.374
  C      872.527     549.726    -198.471
  O      873.273     548.779    -198.668
  N      874.152     551.714    -198.454
  C      873.898     552.998    -198.259
  N      872.576     553.250    -198.043
  O      876.521     556.731    -200.397
  O      874.626     557.992    -201.585
  H      871.824     555.136    -195.231
  H      875.311     558.034    -202.283
  H      870.831     548.597    -198.377
  H      874.654     553.785    -198.246
  H      870.975     554.266    -197.223
  H      873.874     555.344    -197.203
  H      868.617     549.265    -198.023
  H      873.030     557.579    -197.083
  H      868.272     550.956    -197.783
  H      870.815     557.128    -198.803
  H      872.450     556.943    -200.703
  H      872.779     558.330    -199.620
  P      870.561     558.560    -196.345
  C      869.813     558.622    -193.872
  O      869.396     558.611    -195.237
  O      870.211     559.155    -197.670
  O      871.749     559.387    -195.630
  H      871.725     560.302    -195.962
  H      868.953     558.657    -193.237
  H      870.424     559.482    -193.693
  H      870.375     557.736    -193.664

 6  7  8  9  10  11  12  13  14  15  26  29  33  34 0
 6-311+G(2d,p)
 ****
 36  38  39  40  41 0
 6-311+G(2d,p)
 ****
 1  2  3  4  5  16  17  18  19  20  21  22  23  24  25 0
 3-21G
 ****
 27  28  30  31  32  35  37  42  43  44  45  46  47 0
 3-21G
 ****
 48  49 0
 3-21G
 ****


