%nproc=1
%NoSave
%Mem=1900MB
#P OB98/GEN NMR

erre ene a

0 1
  C      228.782    -550.827     477.548
  O      230.034    -550.566     476.935
  P      230.226    -549.243     476.048
  C      232.490    -548.615     477.108
  O      231.798    -548.972     475.907
  C      233.987    -548.857     476.951
  O      234.278    -550.274     476.971
  C      234.578    -548.331     475.645
  O      234.719    -546.922     475.685
  C      235.873    -549.114     475.566
  O      236.887    -548.496     476.379
  C      235.465    -550.477     476.173
  N      237.654    -553.871     473.056
  C      238.180    -552.894     473.832
  N      237.517    -551.999     474.607
  C      236.196    -552.183     474.508
  C      235.518    -553.111     473.734
  C      236.319    -553.998     472.987
  N      235.800    -555.049     472.246
  N      234.148    -552.953     473.867
  C      234.007    -551.944     474.710
  N      235.207    -551.478     475.169
  O      229.415    -548.062     476.483
  O      229.811    -549.715     474.577
  H      237.098    -547.626     475.980
  H      229.050    -549.183     474.269
  H      239.275    -552.820     473.840
  H      233.061    -551.523     475.020
  H      236.232    -550.867     476.847
  H      236.269    -549.182     474.547
  H      233.926    -548.625     474.803
  H      234.495    -548.395     477.820
  H      232.091    -549.216     477.928
  H      236.464    -555.709     471.889
  H      234.837    -555.344     472.431
  H      232.286    -547.558     477.333
  P      233.921    -546.015     474.635
  C      234.232    -543.791     475.897
  O      234.550    -544.539     474.728
  O      232.434    -546.073     474.722
  O      234.437    -546.529     473.206
  H      233.725    -546.442     472.554
  H      233.218    -543.386     475.802
  H      234.946    -542.964     475.983
  H      234.301    -544.411     476.791
  H      228.837    -551.745     478.095
  H      228.026    -550.906     476.795
  H      228.538    -550.027     478.216

 3  4  5  6  7  8  9  10  11  12  22  25  29  30  31  32 0
 6-311+G(2d,p)
 ****
 33  36  37 0
 6-311+G(2d,p)
 ****
 1  2  13  14  15  16  17  18  19  20  21  23  24  26 0
 3-21G
 ****
 27  28  34  35  38  39  40  41  42  43  44  45  46  47  48 0
 3-21G
 ****


