%nproc=1
%NoSave
%Mem=1900MB
#P OB98/GEN NMR

erre ene a

0 1
  C     -325.725     407.714     -42.353
  O     -325.753     408.880     -41.560
  H     -325.736     408.009     -43.405
  H     -326.613     407.106     -42.151
  H     -324.825     407.128     -42.163
  P     -325.425     408.760     -39.999
  C     -327.190     410.164     -38.739
  O     -325.889     410.133     -39.309
  C     -327.751     411.591     -38.738
  O     -328.238     411.906     -40.067
  C     -328.938     411.728     -37.780
  O     -329.072     413.053     -37.274
  C     -330.128     411.419     -38.677
  O     -331.354     411.964     -38.188
  C     -329.670     412.021     -40.002
  N     -333.477     412.053     -43.397
  C     -333.338     412.783     -42.232
  N     -334.350     413.637     -41.936
  N     -332.318     412.672     -41.423
  C     -331.424     411.731     -41.809
  C     -331.459     410.931     -42.925
  C     -332.577     411.087     -43.834
  O     -332.759     410.452     -44.868
  N     -330.376     410.089     -42.978
  C     -329.688     410.375     -41.890
  N     -330.268     411.387     -41.159
  O     -323.827     408.868     -39.940
  O     -325.915     407.515     -39.327
  H     -331.219     412.920     -38.069
  H     -323.489     408.472     -39.118
  H     -334.266     412.199     -43.999
  H     -328.761     409.899     -41.596
  H     -329.923     413.090     -40.049
  H     -330.248     410.335     -38.720
  H     -335.230     413.606     -42.426
  H     -328.885     411.032     -36.944
  H     -334.416     413.933     -40.957
  H     -326.950     412.310     -38.516
  H     -327.101     409.784     -37.718
  H     -327.856     409.487     -39.281
  P     -329.028     413.274     -35.686
  C     -330.616     415.385     -35.495
  O     -329.337     414.804     -35.341
  O     -327.481     413.108     -35.324
  O     -329.889     412.330     -34.907
  H     -327.347     412.327     -34.754
  H     -330.578     416.414     -35.203
  H     -331.320     414.865     -34.880
  H     -330.918     415.316     -36.519

 6  7  8  9  10  11  12  13  14  15  26  29  33  34 0
 6-311+G(2d,p)
 ****
 36  38  39  40  41 0
 6-311+G(2d,p)
 ****
 1  2  3  4  5  16  17  18  19  20  21  22  23  24  25 0
 3-21G
 ****
 27  28  30  31  32  35  37  42  43  44  45  46  47 0
 3-21G
 ****
 48  49 0
 3-21G
 ****


