%nproc=1
%NoSave
%Mem=1900MB
#P OB98/GEN NMR

erre ene a

0 1
  C        5.732    -805.854      81.445
  O        6.680    -805.036      80.792
  H        5.565    -805.462      82.452
  H        6.110    -806.883      81.529
  H        4.782    -805.847      80.895
  P        6.954    -805.332      79.239
  C        8.088    -803.002      78.788
  O        8.193    -804.425      78.790
  C        9.442    -802.376      78.480
  O       10.323    -802.437      79.626
  C       10.219    -803.089      77.386
  O        9.661    -802.901      76.098
  C       11.599    -802.449      77.568
  O       11.653    -801.153      76.965
  C       11.684    -802.360      79.109
  N       12.534    -803.387      79.683
  C       13.915    -803.106      79.713
  O       14.333    -802.041      79.282
  N       14.768    -804.066      80.205
  C       14.302    -805.172      80.657
  N       15.210    -806.084      81.123
  C       12.860    -805.510      80.680
  C       12.048    -804.581      80.166
  O        5.711    -804.610      78.524
  O        7.114    -806.776      78.888
  H       12.536    -800.787      77.166
  H        5.605    -803.675      78.782
  H       12.522    -806.457      81.079
  H       10.980    -804.748      80.144
  H       12.082    -801.374      79.406
  H       12.386    -803.051      77.101
  H       10.302    -804.161      77.614
  H        9.281    -801.316      78.226
  H       16.203    -805.824      81.085
  H        7.706    -802.645      79.751
  H       14.972    -806.999      81.481
  H        7.352    -802.728      78.012
  P        9.491    -804.138      75.091
  C        6.922    -804.059      75.291
  O        8.034    -803.955      74.429
  O        9.729    -805.474      75.690
  O       10.474    -803.767      73.879
  H       10.261    -802.927      73.427
  H        6.022    -803.919      74.730
  H        6.989    -803.309      76.051
  H        6.912    -805.028      75.745

 6  7  8  9  10  11  12  13  14  15  16  26  30  31  32  33  35 0
 6-311+G(2d,p)
 ****
 37  38 0
 6-311+G(2d,p)
 ****
 1  2  3  4  5  17  18  19  20  21  22  23  24  25 0
 3-21G
 ****
 27  28  29  34  36  39  40  41  42  43  44  45  46 0
 3-21G
 ****


