%nproc=1
%NoSave
%Mem=1900MB
#P OB98/GEN NMR

erre ene a

0 1
  C     -205.735    -108.274    -239.953
  O     -204.691    -108.246    -240.904
  H     -206.398    -107.425    -240.135
  H     -205.321    -108.186    -238.946
  H     -206.310    -109.199    -240.041
  P     -203.647    -109.464    -240.872
  C     -204.167    -110.074    -243.337
  O     -204.139    -110.512    -241.987
  C     -205.115    -110.939    -244.167
  O     -206.486    -110.672    -243.745
  C     -205.043    -110.684    -245.680
  O     -205.260    -111.931    -246.351
  C     -206.250    -109.795    -245.932
  O     -206.676    -109.824    -247.292
  C     -207.242    -110.401    -244.941
  N     -212.095    -109.592    -245.992
  C     -211.252    -110.616    -246.378
  N     -211.782    -111.577    -247.167
  N     -209.998    -110.695    -246.022
  C     -209.610    -109.686    -245.205
  C     -210.343    -108.613    -244.755
  C     -211.725    -108.525    -245.180
  O     -212.513    -107.632    -244.888
  N     -209.578    -107.789    -243.967
  C     -208.390    -108.364    -243.940
  N     -208.360    -109.516    -244.676
  O     -204.001    -110.191    -239.490
  O     -202.209    -109.077    -240.949
  H     -206.932    -110.744    -247.508
  H     -203.427    -109.855    -238.775
  H     -213.049    -109.573    -246.306
  H     -207.524    -107.989    -243.411
  H     -207.666    -111.347    -245.301
  H     -206.015    -108.756    -245.668
  H     -212.752    -111.607    -247.441
  H     -204.102    -110.240    -246.019
  H     -211.192    -112.358    -247.424
  H     -204.915    -111.992    -243.938
  H     -203.157    -110.147    -243.757
  H     -204.491    -109.028    -243.370
  P     -204.025    -112.594    -247.128
  C     -204.057    -114.788    -245.735
  O     -203.323    -113.645    -246.144
  O     -202.960    -111.398    -247.185
  O     -204.359    -113.100    -248.491
  H     -202.385    -111.504    -247.965
  H     -203.453    -115.386    -245.085
  H     -204.331    -115.362    -246.595
  H     -204.940    -114.478    -245.216

 6  7  8  9  10  11  12  13  14  15  26  29  33  34 0
 6-311+G(2d,p)
 ****
 36  38  39  40  41 0
 6-311+G(2d,p)
 ****
 1  2  3  4  5  16  17  18  19  20  21  22  23  24  25 0
 3-21G
 ****
 27  28  30  31  32  35  37  42  43  44  45  46  47 0
 3-21G
 ****
 48  49 0
 3-21G
 ****


