%nproc=1
%NoSave
%Mem=1900MB
#P OB98/GEN NMR

erre ene a

0 1
  C     -349.788     353.002     -36.250
  O     -348.912     352.318     -35.371
  P     -349.166     350.779     -34.984
  C     -347.931     351.109     -32.740
  O     -349.145     350.745     -33.381
  C     -348.216     351.602     -31.323
  O     -349.010     352.808     -31.387
  C     -349.010     350.631     -30.466
  O     -348.185     349.573     -29.993
  C     -349.547     351.570     -29.389
  O     -348.538     351.836     -28.407
  C     -349.840     352.848     -30.201
  N     -351.249     352.992     -30.554
  C     -351.814     354.255     -30.357
  O     -351.140     355.192     -29.925
  N     -353.129     354.446     -30.698
  C     -353.828     353.459     -31.167
  N     -355.111     353.724     -31.550
  C     -353.287     352.096     -31.335
  C     -352.007     351.939     -31.017
  O     -348.248     349.804     -35.645
  O     -350.713     350.531     -35.312
  H     -348.509     351.066     -27.811
  H     -350.877     350.245     -36.243
  H     -353.915     351.303     -31.714
  H     -351.525     350.972     -31.132
  H     -349.522     353.736     -29.642
  H     -350.429     351.176     -28.864
  H     -349.845     350.211     -31.035
  H     -347.261     351.848     -30.844
  H     -355.380     354.698     -31.584
  H     -347.456     351.912     -33.310
  H     -355.610     353.105     -32.174
  H     -347.255     350.244     -32.723
  P     -348.512     348.094     -30.518
  C     -348.596     347.320     -28.044
  O     -349.247     347.349     -29.300
  O     -347.064     347.405     -30.589
  O     -349.223     348.043     -31.827
  H     -346.746     347.387     -31.511
  H     -349.318     346.997     -27.287
  H     -348.221     348.313     -27.777
  H     -347.769     346.603     -28.066
  H     -349.449     354.009     -36.380
  H     -350.775     353.008     -35.836
  H     -349.802     352.505     -37.198

 3  4  5  6  7  8  9  10  11  12  13  23  27  28  29  30  32 0
 6-311+G(2d,p)
 ****
 34  35 0
 6-311+G(2d,p)
 ****
 1  2  14  15  16  17  18  19  20  21  22  24  25  26 0
 3-21G
 ****
 31  33  36  37  38  39  40  41  42  43  44  45  46 0
 3-21G
 ****


