%nproc=1
%NoSave
%Mem=1900MB
#P OB98/GEN NMR

erre ene a

0 1
  C      321.804     253.763    -122.080
  O      321.654     252.934    -120.942
  P      322.217     251.437    -120.939
  C      321.125     249.198    -121.527
  O      321.274     250.563    -121.899
  C      319.896     248.574    -122.188
  O      318.698     249.110    -121.564
  C      319.778     248.834    -123.698
  O      319.172     247.671    -124.270
  C      318.804     249.998    -123.761
  O      318.175     250.125    -125.032
  C      317.864     249.631    -122.619
  N      314.733     253.450    -123.936
  C      315.364     252.513    -124.674
  N      316.203     251.544    -124.250
  C      316.364     251.601    -122.918
  C      315.808     252.519    -122.038
  C      314.938     253.474    -122.597
  N      314.259     254.413    -121.857
  N      316.260     252.286    -120.753
  C      317.064     251.249    -120.859
  N      317.108     250.764    -122.136
  O      322.449     250.848    -119.587
  O      323.584     251.538    -121.766
  H      317.421     250.741    -124.940
  H      324.345     251.474    -121.158
  H      315.169     252.538    -125.740
  H      317.640     250.816    -120.049
  H      317.153     248.848    -122.907
  H      319.335     250.935    -123.553
  H      320.730     249.055    -124.187
  H      319.910     247.496    -121.985
  H      321.011     249.154    -120.441
  H      313.563     254.961    -122.338
  H      314.185     254.288    -120.850
  H      322.026     248.639    -121.802
  P      319.223     247.440    -125.856
  C      317.527     247.447    -127.771
  O      317.757     247.758    -126.409
  O      319.807     246.140    -126.295
  O      320.088     248.685    -126.384
  H      320.412     248.496    -127.285
  H      317.930     248.250    -128.400
  H      316.450     247.369    -127.943
  H      318.001     246.503    -128.047
  H      321.365     254.719    -121.885
  H      321.316     253.310    -122.918
  H      322.845     253.886    -122.297

 3  4  5  6  7  8  9  10  11  12  22  25  29  30  31  32 0
 6-311+G(2d,p)
 ****
 33  36  37 0
 6-311+G(2d,p)
 ****
 1  2  13  14  15  16  17  18  19  20  21  23  24  26 0
 3-21G
 ****
 27  28  34  35  38  39  40  41  42  43  44  45  46  47  48 0
 3-21G
 ****


