%nproc=1
%NoSave
%Mem=1900MB
#P OB98/GEN NMR

erre ene a

0 1
  C      816.409     188.444     307.811
  O      816.647     188.705     309.183
  H      815.375     188.696     307.579
  H      816.569     187.382     307.599
  H      817.071     189.053     307.190
  P      818.108     188.339     309.735
  C      817.266     187.009     311.803
  O      817.957     188.157     311.327
  C      816.362     187.378     312.979
  O      817.103     188.115     313.972
  C      815.159     188.235     312.598
  O      814.095     187.429     312.123
  C      814.842     188.901     313.928
  O      814.101     188.006     314.790
  C      816.239     189.166     314.497
  N      815.704     194.153     315.100
  C      814.895     193.115     315.518
  N      813.762     193.450     316.171
  N      815.165     191.854     315.308
  C      816.306     191.665     314.595
  C      817.185     192.614     314.121
  C      816.902     194.003     314.414
  O      817.616     194.966     314.141
  N      818.235     192.030     313.458
  C      817.970     190.734     313.496
  N      816.801     190.465     314.172
  O      818.918     189.714     309.596
  O      818.804     187.231     309.023
  H      814.520     187.122     314.769
  H      819.835     189.514     309.326
  H      815.459     195.107     315.322
  H      818.587     189.954     313.068
  H      816.262     189.086     315.596
  H      814.219     189.785     313.796
  H      813.363     194.378     316.111
  H      815.437     189.002     311.865
  H      813.135     192.688     316.410
  H      816.035     186.437     313.449
  H      818.001     186.266     312.126
  H      816.667     186.584     310.988
  P      812.907     188.145     311.316
  C      811.347     188.005     313.391
  O      811.514     187.731     312.009
  O      812.884     187.349     309.924
  O      813.100     189.608     311.091
  H      813.276     187.906     309.221
  H      810.379     187.676     313.705
  H      811.438     189.058     313.559
  H      812.099     187.488     313.950

 6  7  8  9  10  11  12  13  14  15  26  29  33  34 0
 6-311+G(2d,p)
 ****
 36  38  39  40  41 0
 6-311+G(2d,p)
 ****
 1  2  3  4  5  16  17  18  19  20  21  22  23  24  25 0
 3-21G
 ****
 27  28  30  31  32  35  37  42  43  44  45  46  47 0
 3-21G
 ****
 48  49 0
 3-21G
 ****


