%nproc=1
%NoSave
%Mem=1900MB
#P OB98/GEN NMR

erre ene a

0 1
  C       39.641     282.798     106.557
  O       40.991     282.466     106.298
  H       39.578     283.279     107.536
  H       39.022     281.896     106.566
  H       39.272     283.492     105.797
  P       41.276     281.651     104.943
  C       40.743     283.794     103.551
  O       40.415     282.444     103.842
  C       41.098     283.930     102.074
  O       41.421     285.300     101.754
  C       42.314     283.115     101.648
  O       42.020     281.741     101.457
  C       42.661     283.805     100.343
  O       41.737     283.393      99.319
  C       42.443     285.289     100.722
  N       43.662     285.944     101.199
  C       44.656     286.196     100.244
  O       44.495     285.864      99.071
  N       45.828     286.790     100.649
  C       45.990     287.114     101.894
  N       47.174     287.689     102.242
  C       44.966     286.884     102.928
  C       43.841     286.301     102.516
  O       40.440     280.300     105.132
  O       42.711     281.444     104.593
  H       41.874     283.987      98.558
  H       40.450     279.780     104.292
  H       45.153     287.163     103.956
  H       43.043     286.098     103.223
  H       42.053     285.857      99.868
  H       43.666     283.569      99.985
  H       43.150     283.244     102.346
  H       40.210     283.657     101.488
  H       47.882     287.776     101.524
  H       41.596     284.083     104.173
  H       47.461     287.806     103.204
  H       39.894     284.445     103.782
  P       43.171     280.815     100.830
  C       44.310     280.901     103.163
  O       44.472     280.992     101.754
  O       43.568     281.588      99.489
  O       42.765     279.397     100.563
  H       43.748     280.964      98.761
  H       45.258     281.039     103.641
  H       43.920     279.937     103.416
  H       43.630     281.659     103.494

 6  7  8  9  10  11  12  13  14  15  16  26  30  31  32  33  35 0
 6-311+G(2d,p)
 ****
 37  38 0
 6-311+G(2d,p)
 ****
 1  2  3  4  5  17  18  19  20  21  22  23  24  25 0
 3-21G
 ****
 27  28  29  34  36  39  40  41  42  43  44  45  46 0
 3-21G
 ****


