%nproc=1
%NoSave
%Mem=1900MB
#P OB98/GEN NMR

erre ene a

0 1
  C      122.365     411.032      66.785
  O      123.078     409.846      67.081
  H      121.988     411.456      67.720
  H      121.517     410.807      66.131
  H      123.024     411.760      66.306
  P      123.734     409.075      65.836
  C      125.233     408.074      67.712
  O      124.599     407.873      66.454
  C      125.913     406.784      68.154
  O      126.559     406.155      67.021
  C      127.014     406.988      69.186
  O      126.505     407.185      70.492
  C      127.808     405.698      69.033
  O      127.221     404.632      69.785
  C      127.692     405.414      67.530
  N      132.387     403.895      66.212
  C      131.381     403.265      66.865
  N      130.154     403.736      67.165
  C      129.999     404.986      66.694
  C      130.928     405.753      66.009
  C      132.175     405.155      65.768
  N      133.207     405.803      65.126
  N      130.416     407.003      65.727
  C      129.195     406.989      66.220
  N      128.898     405.789      66.812
  O      124.840     410.110      65.313
  O      122.784     408.686      64.757
  H      127.211     404.927      70.719
  H      124.494     410.590      64.538
  H      131.597     402.253      67.193
  H      128.495     407.817      66.185
  H      127.509     404.354      67.319
  H      128.831     405.828      69.378
  H      127.656     407.833      68.893
  H      125.150     406.093      68.536
  H      124.482     408.359      68.455
  H      125.964     408.882      67.614
  H      134.099     405.341      65.049
  H      133.099     406.781      64.894
  P      127.381     408.051      71.514
  C      125.144     408.642      72.718
  O      126.506     408.250      72.841
  O      127.412     409.509      70.853
  O      128.756     407.523      71.754
  H      128.280     409.930      71.019
  H      124.709     408.729      73.692
  H      124.611     407.906      72.153
  H      125.088     409.586      72.217

 6  7  8  9  10  11  12  13  14  15  25  28  32  33  34  35 0
 6-311+G(2d,p)
 ****
 36  37  40 0
 6-311+G(2d,p)
 ****
 1  2  3  4  5  16  17  18  19  20  21  22  23  24 0
 3-21G
 ****
 26  27  29  30  31  38  39 41  42  43  44  45  46  47  48 0
 3-21G
 ****


