%nproc=1
%NoSave
%Mem=1900MB
#P OB98/GEN NMR

erre ene a

0 1
  C      167.777    -126.387      -7.146
  O      168.407    -125.272      -6.549
  H      166.801    -126.076      -7.528
  H      167.628    -127.172      -6.401
  H      168.375    -126.770      -7.977
  P      169.938    -125.461      -6.106
  C      169.737    -125.444      -3.519
  O      169.912    -126.223      -4.693
  C      168.280    -125.488      -3.067
  O      167.789    -126.848      -3.087
  C      168.046    -124.970      -1.653
  O      167.954    -123.553      -1.616
  C      166.707    -125.617      -1.338
  O      165.649    -124.892      -1.998
  C      166.873    -127.006      -1.968
  N      168.027    -131.910      -1.390
  C      167.483    -131.247      -2.474
  N      167.196    -132.001      -3.556
  N      167.237    -129.963      -2.495
  C      167.564    -129.338      -1.340
  C      168.110    -129.883      -0.199
  C      168.385    -131.301      -0.192
  O      168.886    -131.934       0.733
  N      168.312    -128.931       0.766
  C      167.870    -127.815       0.219
  N      167.399    -128.009      -1.057
  O      170.397    -123.976      -5.716
  O      170.835    -126.052      -7.140
  H      165.629    -124.003      -1.599
  H      171.331    -123.857      -5.974
  H      168.186    -132.900      -1.421
  H      167.873    -126.847       0.699
  H      165.931    -127.399      -2.367
  H      166.478    -125.616      -0.271
  H      167.314    -133.002      -3.588
  H      168.805    -125.347      -0.955
  H      166.827    -131.533      -4.375
  H      167.687    -124.915      -3.792
  H      170.019    -124.407      -3.728
  H      170.388    -125.838      -2.731
  P      168.698    -122.789      -0.415
  C      167.026    -122.243       1.498
  O      167.903    -123.203       0.917
  O      168.274    -121.263      -0.641
  O      170.178    -122.961      -0.379
  H      168.926    -120.670      -0.223
  H      166.571    -122.659       2.373
  H      166.267    -121.980       0.792
  H      167.582    -121.369       1.766

 6  7  8  9  10  11  12  13  14  15  26  29  33  34 0
 6-311+G(2d,p)
 ****
 36  38  39  40  41 0
 6-311+G(2d,p)
 ****
 1  2  3  4  5  16  17  18  19  20  21  22  23  24  25 0
 3-21G
 ****
 27  28  30  31  32  35  37  42  43  44  45  46  47 0
 3-21G
 ****
 48  49 0
 3-21G
 ****


