%nproc=1
%NoSave
%Mem=1900MB
#P OB98/GEN NMR

erre ene a

0 1
  C     -174.594    -286.003     243.394
  O     -176.003    -286.032     243.149
  P     -176.702    -284.653     242.739
  C     -176.781    -283.660     245.154
  O     -177.516    -284.145     244.031
  C     -177.587    -282.575     245.873
  O     -177.610    -281.366     245.089
  C     -179.055    -282.933     246.112
  O     -179.190    -283.853     247.194
  C     -179.629    -281.541     246.392
  O     -179.334    -281.151     247.742
  C     -178.841    -280.668     245.395
  N     -182.150    -277.538     243.010
  C     -181.631    -277.531     244.280
  N     -180.769    -278.417     244.845
  C     -180.433    -279.377     243.967
  C     -180.891    -279.530     242.659
  C     -181.785    -278.553     242.179
  N     -182.287    -278.570     240.899
  N     -180.343    -280.656     242.079
  C     -179.564    -281.171     243.011
  N     -179.563    -280.432     244.164
  O     -177.854    -285.114     241.734
  O     -175.790    -283.642     242.127
  H     -179.788    -280.290     247.911
  H     -177.994    -284.441     241.033
  H     -181.953    -276.703     244.906
  H     -178.966    -282.077     242.896
  H     -178.579    -279.680     245.802
  H     -180.713    -281.505     246.262
  H     -179.506    -283.351     245.212
  H     -177.087    -282.367     246.846
  H     -175.841    -283.231     244.817
  H     -183.030    -277.926     240.693
  H     -182.137    -279.399     240.336
  H     -176.556    -284.502     245.826
  P     -179.463    -285.391     246.806
  C     -182.006    -285.041     246.625
  O     -180.948    -285.670     247.339
  O     -178.551    -286.167     247.873
  O     -179.196    -285.738     245.370
  H     -178.709    -285.820     248.758
  H     -182.954    -285.331     247.059
  H     -181.982    -285.316     245.572
  H     -181.908    -283.929     246.716
  H     -174.257    -286.984     243.657
  H     -174.385    -285.327     244.197
  H     -174.085    -285.676     242.511

 3  4  5  6  7  8  9  10  11  12  22  25  29  30  31  32 0
 6-311+G(2d,p)
 ****
 33  36  37 0
 6-311+G(2d,p)
 ****
 1  2  13  14  15  16  17  18  19  20  21  23  24  26 0
 3-21G
 ****
 27  28  34  35  38  39  40  41  42  43  44  45  46  47  48 0
 3-21G
 ****


