%nproc=1
%NoSave
%Mem=1900MB
#P OB98/GEN NMR

erre ene a

0 1
  C      -36.848    -888.956     406.105
  O      -38.018    -889.186     406.873
  H      -37.047    -888.136     405.415
  H      -36.594    -889.856     405.520
  H      -36.011    -888.676     406.754
  P      -37.989    -890.356     407.973
  C      -38.072    -892.956     407.803
  O      -38.188    -891.706     407.122
  C      -39.159    -893.926     407.315
  O      -39.085    -894.106     405.890
  C      -39.051    -895.326     407.898
  O      -39.446    -895.416     409.262
  C      -39.998    -896.056     406.966
  O      -41.363    -895.756     407.324
  C      -39.614    -895.436     405.613
  N      -38.625    -896.226     404.866
  C      -39.131    -897.226     404.009
  O      -40.345    -897.396     403.913
  N      -38.236    -898.006     403.304
  C      -36.966    -897.836     403.472
  N      -36.130    -898.656     402.768
  C      -36.388    -896.816     404.385
  C      -37.284    -896.056     405.038
  O      -38.917    -890.196     409.137
  O      -36.443    -890.476     408.389
  H      -41.420    -894.776     407.383
  H      -36.375    -891.186     409.082
  H      -35.318    -896.736     404.510
  H      -36.926    -895.296     405.724
  H      -40.505    -895.296     404.973
  H      -39.884    -897.136     407.001
  H      -38.044    -895.736     407.761
  H      -40.126    -893.466     407.552
  H      -36.554    -899.346     402.154
  H      -38.173    -892.756     408.875
  H      -35.124    -898.646     402.879
  H      -37.099    -893.386     407.604
  P      -38.811    -896.616     410.126
  C      -38.849    -899.226     409.863
  O      -39.000    -897.956     409.237
  O      -39.857    -896.796     411.321
  O      -37.409    -896.386     410.595
  H      -39.533    -896.326     412.128
  H      -39.005    -900.000     409.141
  H      -39.567    -899.323     410.651
  H      -37.862    -899.309     410.268

 6  7  8  9  10  11  12  13  14  15  16  26  30  31  32  33  35 0
 6-311+G(2d,p)
 ****
 37  38 0
 6-311+G(2d,p)
 ****
 1  2  3  4  5  17  18  19  20  21  22  23  24  25 0
 3-21G
 ****
 27  28  29  34  36  39  40  41  42  43  44  45  46 0
 3-21G
 ****


