%nproc=1
%NoSave
%Mem=1900MB
#P OB98/GEN NMR

erre ene a

0 1
  C      123.155    -151.798    -129.808
  O      123.676    -150.859    -128.883
  P      122.740    -150.392    -127.672
  C      120.819    -148.669    -127.354
  O      121.600    -149.429    -128.266
  C      119.528    -148.181    -128.013
  O      118.921    -149.269    -128.758
  C      118.482    -147.676    -127.014
  O      117.742    -146.597    -127.607
  C      117.535    -148.851    -126.866
  O      116.245    -148.431    -126.426
  C      117.568    -149.420    -128.286
  N      113.603    -152.555    -128.416
  C      113.653    -151.194    -128.647
  N      112.472    -150.577    -128.858
  N      114.761    -150.504    -128.678
  C      115.867    -151.254    -128.444
  C      115.945    -152.611    -128.218
  C      114.711    -153.361    -128.177
  O      114.593    -154.562    -127.946
  N      117.246    -153.019    -128.061
  C      117.951    -151.908    -128.143
  N      117.158    -150.808    -128.343
  O      123.686    -149.389    -126.854
  O      122.252    -151.497    -126.797
  H      115.953    -147.728    -127.039
  H      123.998    -149.824    -126.037
  H      112.723    -153.041    -128.391
  H      119.029    -151.843    -128.048
  H      116.917    -148.851    -128.961
  H      117.933    -149.566    -126.138
  H      111.576    -151.038    -128.780
  H      118.893    -147.343    -126.053
  H      112.474    -149.572    -128.986
  H      119.781    -147.398    -128.739
  H      121.399    -147.809    -127.019
  H      120.585    -149.283    -126.476
  P      117.362    -145.381    -126.630
  C      115.415    -144.947    -124.953
  O      115.985    -145.801    -125.925
  O      116.930    -144.216    -127.640
  O      118.464    -144.964    -125.713
  H      117.065    -143.344    -127.226
  H      114.446    -144.595    -125.320
  H      116.047    -144.080    -124.741
  H      115.264    -145.508    -124.032
  H      123.892    -152.010    -130.554
  H      122.282    -151.392    -130.274
  H      122.898    -152.700    -129.294

 3  4  5  6  7  8  9  10  11  12  23  26  30  31 0
 6-311+G(2d,p)
 ****
 33  35  36  37  38 0
 6-311+G(2d,p)
 ****
 1  2  13  14  15  16  17  18  19  20  21  22  24  25 0
 3-21G
 ****
 27  28  29  32  34  39  40  41  42  43  44  45  46  47  48  49 0
 3-21G
 ****


