%nproc=1
%NoSave
%Mem=1900MB
#P OB98/GEN NMR

erre ene a

0 1
  C     -611.871     -24.523     151.540
  O     -610.462     -24.647     151.497
  P     -609.637     -25.042     152.815
  C     -609.145     -23.920     155.135
  O     -609.690     -23.822     153.838
  C     -608.256     -22.690     155.400
  O     -608.881     -21.509     154.859
  C     -608.029     -22.471     156.887
  O     -606.820     -23.080     157.309
  C     -608.014     -20.960     157.009
  O     -606.719     -20.441     156.649
  C     -609.072     -20.558     155.948
  N     -610.504     -20.593     156.334
  C     -611.051     -19.519     157.026
  O     -610.430     -18.498     157.307
  N     -612.364     -19.666     157.406
  C     -613.156     -20.744     157.112
  O     -614.242     -20.970     157.657
  C     -612.600     -21.708     156.167
  C     -611.308     -21.611     155.850
  O     -608.115     -25.042     152.308
  O     -610.016     -26.351     153.438
  H     -606.056     -21.046     157.024
  H     -607.819     -25.946     152.106
  H     -612.739     -18.949     158.020
  H     -613.251     -22.505     155.808
  H     -610.868     -22.335     155.170
  H     -608.873     -19.552     155.556
  H     -608.200     -20.645     158.030
  H     -608.880     -22.867     157.461
  H     -607.292     -22.840     154.884
  H     -608.562     -24.841     155.234
  H     -609.949     -23.968     155.882
  P     -606.739     -23.793     158.739
  C     -606.775     -22.981     161.169
  O     -606.830     -22.602     159.815
  O     -605.601     -24.750     158.930
  O     -608.156     -24.536     158.861
  H     -608.070     -25.483     158.612
  H     -606.667     -22.078     161.785
  H     -605.923     -23.639     161.354
  H     -607.710     -23.486     161.445
  H     -612.235     -24.255     150.570
  H     -612.141     -23.764     152.244
  H     -612.302     -25.456     151.838

 3  4  5  6  7  8  9  10  11  12  13  23  28  29  30  31  32 0
 6-311+G(2d,p)
 ****
 33  34 0
 6-311+G(2d,p)
 ****
 1  2  14  15  16  17  18  19  20  21  22  24  25  26  27 0
 3-21G
 ****
 35  36  37  38  39  40  41  42  43  44  45 0
 3-21G
 ****


