%nproc=1
%NoSave
%Mem=1900MB
#P OB98/GEN NMR

erre ene a

0 1
  C      362.018     -81.126     205.999
  O      361.698     -82.382     205.438
  H      362.066     -80.385     205.198
  H      362.995     -81.171     206.489
  H      361.256     -80.813     206.720
  P      361.388     -83.609     206.418
  C      362.659     -85.357     205.005
  O      361.405     -84.936     205.518
  C      362.544     -85.728     203.521
  O      362.456     -84.495     202.741
  C      363.743     -86.524     202.972
  O      363.244     -87.362     201.920
  C      364.606     -85.403     202.424
  O      365.658     -85.871     201.616
  C      363.517     -84.550     201.759
  N      363.925     -83.208     201.366
  C      365.079     -83.081     200.600
  O      365.778     -84.024     200.228
  N      365.430     -81.801     200.258
  C      364.747     -80.666     200.591
  O      365.095     -79.548     200.229
  C      363.540     -80.863     201.405
  C      363.185     -82.105     201.745
  O      360.188     -83.455     207.294
  O      362.731     -83.752     207.282
  H      362.596     -83.354     208.163
  H      365.282     -86.377     200.865
  H      366.262     -81.689     199.701
  H      362.981     -79.983     201.694
  H      362.292     -82.282     202.338
  H      363.115     -85.074     200.886
  H      365.080     -84.859     203.246
  H      364.231     -87.143     203.730
  H      361.603     -86.269     203.364
  H      362.987     -86.231     205.578
  H      363.390     -84.553     205.134
  P      363.964     -88.723     201.454
  C      364.285     -88.173     198.945
  O      363.608     -88.972     199.909
  O      363.671     -89.894     202.335
  O      365.530     -88.390     201.440
  H      366.038     -89.210     201.581
  H      363.955     -88.442     197.963
  H      365.340     -88.336     199.024
  H      364.070     -87.140     199.123

 6  7  8  9  10  11  12  13  14  15  16  27  31  32  33  34  35 0
 6-311+G(2d,p)
 ****
 36  37 0
 6-311+G(2d,p)
 ****
 1  2  3  4  5  17  18  19  20  21  22  23  24  25 0
 3-21G
 ****
 26  28  29  30  38  39  40  41  42  43  44  45 0
 3-21G
 ****


