%nproc=1
%NoSave
%Mem=1900MB
#P OB98/GEN NMR

erre ene a

0 1
  C     -526.626    -155.870    -109.580
  O     -527.597    -156.313    -110.506
  P     -529.151    -156.028    -110.246
  C     -530.768    -156.230    -108.260
  O     -529.558    -156.697    -108.846
  C     -531.469    -157.362    -107.513
  O     -530.510    -158.210    -106.842
  C     -532.412    -156.890    -106.418
  O     -533.602    -156.330    -106.943
  C     -532.603    -158.173    -105.624
  O     -533.574    -159.025    -106.253
  C     -531.198    -158.807    -105.714
  N     -530.438    -158.648    -104.484
  C     -530.737    -159.550    -103.457
  O     -531.652    -160.361    -103.586
  N     -529.992    -159.498    -102.305
  C     -529.119    -158.555    -102.142
  N     -528.370    -158.591    -101.008
  C     -528.888    -157.488    -103.139
  C     -529.560    -157.609    -104.284
  O     -530.058    -156.358    -111.384
  O     -529.206    -154.461    -109.916
  H     -529.897    -154.048    -110.470
  H     -534.388    -158.492    -106.349
  H     -528.199    -156.685    -102.928
  H     -529.437    -156.884    -105.081
  H     -531.277    -159.875    -105.946
  H     -532.951    -157.987    -104.602
  H     -531.905    -156.145    -105.791
  H     -532.011    -157.970    -108.249
  H     -528.542    -159.346    -100.355
  H     -531.418    -155.850    -109.052
  H     -527.471    -158.121    -100.934
  H     -530.539    -155.402    -107.576
  P     -534.149    -154.996    -106.241
  C     -535.073    -154.386    -103.902
  O     -534.382    -155.331    -104.694
  O     -535.631    -154.850    -106.828
  O     -533.336    -153.772    -106.512
  H     -535.843    -153.908    -106.959
  H     -535.451    -154.890    -103.005
  H     -535.919    -153.951    -104.443
  H     -534.387    -153.592    -103.595
  H     -525.652    -156.151    -109.923
  H     -526.812    -156.318    -108.626
  H     -526.679    -154.805    -109.490

 3  4  5  6  7  8  9  10  11  12  13  24  27  28  29  30  32 0
 6-311+G(2d,p)
 ****
 34  35 0
 6-311+G(2d,p)
 ****
 1  2  14  15  16  17  18  19  20  21  22  23  25  26 0
 3-21G
 ****
 31  33  36  37  38  39  40  41  42  43  44  45  46 0
 3-21G
 ****


