%nproc=1
%NoSave
%Mem=1900MB
#P OB98/GEN NMR

erre ene a

0 1
  C       79.747     -29.994      84.402
  O       78.414     -30.256      84.014
  H       80.239     -29.352      83.666
  H       79.737     -29.481      85.368
  H       80.299     -30.933      84.507
  P       78.211     -30.914      82.565
  C       79.164     -30.350      80.222
  O       78.795     -29.861      81.502
  C       79.540     -29.193      79.305
  O       80.710     -28.517      79.809
  C       79.891     -29.597      77.878
  O       78.732     -29.847      77.096
  C       80.627     -28.351      77.407
  O       79.675     -27.341      77.025
  C       81.380     -27.912      78.672
  N       86.238     -26.256      78.843
  C       85.059     -25.594      78.845
  N       83.809     -26.097      78.786
  C       83.837     -27.439      78.736
  C       84.959     -28.250      78.727
  C       86.208     -27.606      78.777
  N       87.404     -28.291      78.757
  N       84.600     -29.579      78.683
  C       83.283     -29.574      78.666
  N       82.775     -28.302      78.690
  O       76.627     -30.831      82.334
  O       78.711     -32.313      82.422
  H       79.128     -27.727      76.316
  H       76.337     -31.621      81.842
  H       85.129     -24.510      78.906
  H       82.661     -30.461      78.642
  H       81.328     -26.827      78.814
  H       81.273     -28.534      76.546
  H       80.578     -30.450      77.865
  H       78.710     -28.474      79.312
  H       78.321     -30.896      79.784
  H       88.247     -27.796      78.992
  H       87.371     -29.305      78.715
  H       80.010     -31.036      80.336
  P       78.846     -30.956      75.938
  C       80.290     -31.210      73.798
  O       79.991     -30.425      74.947
  O       77.502     -30.739      75.097
  O       78.984     -32.360      76.417
  H       77.262     -31.567      74.637
  H       81.067     -30.736      73.235
  H       79.414     -31.301      73.191
  H       80.614     -32.182      74.105

 6  7  8  9  10  11  12  13  14  15  25  28  32  33  34  35 0
 6-311+G(2d,p)
 ****
 36  39  40 0
 6-311+G(2d,p)
 ****
 1  2  3  4  5  16  17  18  19  20  21  22  23  24 0
 3-21G
 ****
 26  27  29  30  31  37  38  41  42  43  44  45  46  47  48 0
 3-21G
 ****


