%nproc=1
%NoSave
%Mem=1900MB
#P OB98/GEN NMR

erre ene a

0 1
  C     -547.105      74.181     347.022
  O     -545.723      74.471     347.042
  H     -547.382      73.758     347.987
  H     -547.318      73.453     346.239
  H     -547.692      75.089     346.850
  P     -545.108      75.394     345.889
  C     -542.831      74.193     346.153
  O     -543.518      75.436     346.117
  C     -541.875      74.132     347.350
  O     -540.803      75.095     347.143
  C     -542.581      74.521     348.651
  O     -541.975      73.903     349.789
  C     -542.341      76.016     348.729
  O     -542.440      76.536     350.059
  C     -540.945      76.135     348.120
  N     -539.469      80.977     348.784
  C     -539.773      80.019     349.729
  N     -539.672      80.406     351.030
  N     -540.171      78.810     349.438
  C     -540.298      78.592     348.104
  C     -540.043      79.461     347.070
  C     -539.576      80.788     347.411
  O     -539.308      81.684     346.610
  N     -540.298      78.882     345.849
  C     -540.707      77.665     346.146
  N     -540.702      77.432     347.496
  O     -545.556      76.873     346.306
  O     -545.542      75.057     344.493
  H     -541.602      76.332     350.521
  H     -545.554      77.462     345.529
  H     -539.138      81.888     349.064
  H     -540.997      76.914     345.423
  H     -540.174      75.991     348.886
  H     -543.112      76.518     348.139
  H     -539.564      81.373     351.284
  H     -543.643      74.291     348.645
  H     -540.182      79.837     351.710
  H     -541.402      73.143     347.407
  H     -542.284      74.102     345.207
  H     -543.552      73.365     346.195
  P     -542.929      73.154     350.845
  C     -541.051      73.424     352.690
  O     -542.067      72.646     352.094
  O     -543.339      71.805     350.096
  O     -544.129      73.949     351.272
  H     -544.305      71.789     349.924
  H     -540.616      72.881     353.503
  H     -541.470      74.338     353.056
  H     -540.297      73.643     351.963

 6  7  8  9  10  11  12  13  14  15  26  29  33  34 0
 6-311+G(2d,p)
 ****
 36  38  39  40  41 0
 6-311+G(2d,p)
 ****
 1  2  3  4  5  16  17  18  19  20  21  22  23  24  25 0
 3-21G
 ****
 27  28  30  31  32  35  37  42  43  44  45  46  47 0
 3-21G
 ****
 48  49 0
 3-21G
 ****


