%nproc=1
%NoSave
%Mem=1900MB
#P OB98/GEN NMR

erre ene a

0 1
  C      155.308     652.068    1013.738
  O      156.622     652.157    1014.269
  P      156.807     652.921    1015.673
  C      156.209     650.798    1017.118
  O      155.893     652.126    1016.728
  C      156.877     650.805    1018.493
  O      158.150     651.488    1018.418
  C      156.091     651.527    1019.582
  O      155.010     650.747    1020.063
  C      157.188     651.802    1020.607
  O      157.441     650.625    1021.397
  C      158.401     652.104    1019.705
  N      158.675     653.532    1019.562
  C      159.740     654.036    1020.308
  O      160.432     653.330    1021.046
  N      159.973     655.381    1020.185
  C      159.226     656.259    1019.457
  O      159.460     657.465    1019.413
  C      158.091     655.682    1018.712
  C      157.873     654.363    1018.803
  O      156.014     654.276    1015.379
  O      158.237     653.100    1016.055
  H      155.316     654.150    1014.707
  H      156.639     650.472    1021.926
  H      160.756     655.759    1020.696
  H      157.470     656.351    1018.138
  H      157.043     653.927    1018.271
  H      159.303     651.618    1020.103
  H      156.929     652.609    1021.298
  H      155.708     652.482    1019.189
  H      157.075     649.772    1018.792
  H      156.895     650.358    1016.383
  H      155.291     650.209    1017.144
  P      153.713     651.545    1020.576
  C      151.931     651.393    1018.678
  O      152.994     652.113    1019.272
  O      154.393     652.845    1021.237
  O      152.853     650.752    1021.511
  H      155.121     653.201    1020.711
  H      151.343     652.075    1018.058
  H      151.272     650.946    1019.427
  H      152.338     650.605    1018.045
  H      155.334     651.538    1012.809
  H      154.921     653.052    1013.577
  H      154.679     651.546    1014.428

 3  4  5  6  7  8  9  10  11  12  13  24  28  29  30  31  32 0
 6-311+G(2d,p)
 ****
 33  34 0
 6-311+G(2d,p)
 ****
 1  2  14  15  16  17  18  19  20  21  22  23  25  26  27 0
 3-21G
 ****
 35  36  37  38  39  40  41  42  43  44  45 0
 3-21G
 ****


