%nproc=1
%NoSave
%Mem=1900MB
#P OB98/GEN NMR

erre ene a

0 1
  C      -32.108    -126.407      22.041
  O      -32.380    -125.537      23.117
  H      -32.460    -127.408      22.305
  H      -31.030    -126.449      21.866
  H      -32.616    -126.086      21.128
  P      -32.382    -123.960      22.850
  C      -34.899    -124.013      22.285
  O      -33.598    -123.634      21.853
  C      -35.994    -123.321      21.471
  O      -37.287    -123.871      21.806
  C      -36.081    -121.824      21.769
  O      -35.178    -121.009      21.045
  C      -37.525    -121.515      21.387
  O      -37.637    -121.247      19.979
  C      -38.256    -122.811      21.746
  N      -42.767    -122.337      24.096
  C      -42.484    -122.307      22.744
  N      -43.526    -122.062      21.921
  N      -41.285    -122.483      22.256
  C      -40.327    -122.622      23.202
  C      -40.485    -122.654      24.570
  C      -41.825    -122.514      25.099
  O      -42.129    -122.526      26.288
  N      -39.280    -122.817      25.212
  C      -38.392    -122.806      24.239
  N      -38.981    -122.717      22.999
  O      -31.099    -123.735      21.914
  O      -32.311    -123.102      24.076
  H      -36.975    -120.572      19.742
  H      -30.764    -122.828      22.023
  H      -43.713    -122.224      24.414
  H      -37.319    -122.887      24.374
  H      -38.984    -123.088      20.973
  H      -37.901    -120.629      21.908
  H      -44.441    -121.806      22.257
  H      -35.963    -121.642      22.842
  H      -43.320    -121.770      20.964
  H      -35.826    -123.513      20.405
  H      -34.977    -123.726      23.335
  H      -35.014    -125.099      22.236
  P      -34.727    -119.592      21.637
  C      -32.287    -120.385      22.073
  O      -33.484    -119.865      22.610
  O      -35.922    -119.229      22.637
  O      -34.512    -118.525      20.620
  H      -36.562    -118.639      22.198
  H      -31.567    -120.505      22.856
  H      -31.904    -119.710      21.336
  H      -32.482    -121.334      21.620

 6  7  8  9  10  11  12  13  14  15  26  29  33  34 0
 6-311+G(2d,p)
 ****
 36  38  39  40  41 0
 6-311+G(2d,p)
 ****
 1  2  3  4  5  16  17  18  19  20  21  22  23  24  25 0
 3-21G
 ****
 27  28  30  31  32  35  37  42  43  44  45  46  47 0
 3-21G
 ****
 48  49 0
 3-21G
 ****


