%nproc=1
%NoSave
%Mem=1900MB
#P OB98/GEN NMR

erre ene a

0 1
  C      694.007    -212.359     -28.890
  O      694.846    -212.114     -30.000
  H      693.560    -213.352     -28.998
  H      693.204    -211.615     -28.860
  H      694.580    -212.325     -27.958
  P      695.786    -210.815     -29.946
  C      697.935    -212.262     -29.728
  O      697.234    -211.276     -30.473
  C      698.925    -212.996     -30.640
  O      698.170    -213.851     -31.548
  C      699.789    -212.061     -31.493
  O      701.094    -212.646     -31.619
  C      699.097    -212.102     -32.850
  O      699.944    -211.756     -33.942
  C      698.614    -213.551     -32.891
  N      697.543    -213.762     -33.861
  C      697.908    -214.105     -35.155
  O      699.058    -214.328     -35.529
  N      696.874    -214.194     -36.061
  C      695.554    -213.962     -35.800
  O      694.683    -214.038     -36.656
  C      695.236    -213.595     -34.418
  C      696.224    -213.506     -33.518
  O      696.011    -210.600     -28.378
  O      695.242    -209.599     -30.618
  H      695.315    -210.024     -28.001
  H      700.282    -210.853     -33.778
  H      697.122    -214.445     -37.007
  H      694.197    -213.380     -34.174
  H      696.021    -213.221     -32.495
  H      699.448    -214.223     -33.115
  H      698.243    -211.409     -32.851
  H      699.875    -211.041     -31.105
  H      699.546    -213.653     -30.020
  H      697.221    -212.990     -29.326
  H      698.467    -211.779     -28.901
  P      702.235    -211.746     -32.309
  C      703.925    -211.739     -30.302
  O      703.610    -212.197     -31.616
  O      701.925    -210.310     -31.677
  O      702.206    -211.808     -33.803
  H      701.599    -210.360     -30.764
  H      704.872    -212.137     -30.003
  H      703.169    -212.067     -29.619
  H      703.970    -210.670     -30.298

 6  7  8  9  10  11  12  13  14  15  16  27  31  32  33  34  35 0
 6-311+G(2d,p)
 ****
 36  37 0
 6-311+G(2d,p)
 ****
 1  2  3  4  5  17  18  19  20  21  22  23  24  25 0
 3-21G
 ****
 26  28  29  30  38  39  40  41  42  43  44  45 0
 3-21G
 ****


