%nproc=1
%NoSave
%Mem=1900MB
#P OB98/GEN NMR

erre ene a

0 1
  C      101.065     -49.782      -9.780
  O      100.360     -50.683     -10.611
  H      100.652     -48.779      -9.923
  H      102.127     -49.764     -10.035
  H      100.939     -50.065      -8.730
  P      100.952     -52.165     -10.794
  C      101.893     -51.357     -13.057
  O      102.180     -52.008     -11.821
  C      103.073     -51.456     -14.022
  O      104.205     -50.712     -13.525
  C      103.596     -52.871     -14.222
  O      102.705     -53.740     -14.882
  C      104.969     -52.615     -14.823
  O      104.912     -52.374     -16.230
  C      105.391     -51.323     -14.081
  N      106.398     -51.577     -13.056
  C      107.718     -51.366     -13.434
  O      108.056     -51.010     -14.565
  N      108.661     -51.613     -12.472
  C      108.418     -52.081     -11.215
  O      109.311     -52.303     -10.404
  C      107.004     -52.324     -10.884
  C      106.072     -52.062     -11.805
  O       99.958     -53.216     -11.192
  O      101.680     -52.461      -9.401
  H      105.830     -52.243     -16.533
  H      101.871     -53.426      -9.295
  H      109.625     -51.451     -12.722
  H      106.773     -52.708      -9.900
  H      105.020     -52.229     -11.583
  H      105.809     -50.596     -14.792
  H      105.650     -53.454     -14.665
  H      103.769     -53.317     -13.233
  H      102.772     -51.006     -14.974
  H      101.693     -50.301     -12.839
  H      100.999     -51.802     -13.505
  P      102.673     -55.319     -14.650
  C      103.777     -55.816     -16.969
  O      103.812     -55.992     -15.557
  O      101.324     -55.964     -14.622
  O      103.305     -55.445     -13.170
  H      102.864     -56.202     -12.731
  H      104.605     -56.328     -17.413
  H      103.838     -54.773     -17.200
  H      102.862     -56.214     -17.356

 6  7  8  9  10  11  12  13  14  15  16  26  31  32  33  34  35 0
 6-311+G(2d,p)
 ****
 36  37 0
 6-311+G(2d,p)
 ****
 1  2  3  4  5  17  18  19  20  21  22  23  24  25 0
 3-21G
 ****
 27  28  29  30  38  39  40  41  42  43  44  45 0
 3-21G
 ****


