%nproc=1
%NoSave
%Mem=1900MB
#P OB98/GEN NMR

erre ene a

0 1
  C      -23.736     -20.789     -73.348
  O      -23.022     -21.474     -74.359
  H      -24.800     -21.012     -73.457
  H      -23.589     -19.710     -73.449
  H      -23.404     -21.120     -72.360
  P      -21.432     -21.254     -74.384
  C      -19.908     -19.193     -73.989
  O      -21.201     -19.665     -74.336
  C      -19.754     -17.726     -74.379
  O      -19.627     -17.590     -75.812
  C      -20.919     -16.838     -73.959
  O      -20.794     -16.435     -72.607
  C      -20.775     -15.678     -74.934
  O      -19.764     -14.745     -74.499
  C      -20.340     -16.393     -76.222
  N      -22.354     -15.634     -80.787
  C      -21.183     -15.155     -80.240
  N      -20.467     -14.303     -81.007
  N      -20.755     -15.471     -79.047
  C      -21.590     -16.305     -78.385
  C      -22.769     -16.862     -78.824
  C      -23.214     -16.527     -80.160
  O      -24.208     -16.969     -80.727
  N      -23.321     -17.674     -77.869
  C      -22.500     -17.579     -76.841
  N      -21.442     -16.746     -77.100
  O      -21.026     -21.636     -75.886
  O      -20.660     -22.049     -73.388
  H      -19.559     -14.134     -75.227
  H      -20.122     -22.001     -75.889
  H      -22.621     -15.368     -81.719
  H      -22.626     -18.089     -75.897
  H      -19.645     -15.788     -76.815
  H      -21.702     -15.112     -75.028
  H      -20.895     -13.780     -81.759
  H      -21.877     -17.343     -74.135
  H      -19.618     -13.929     -80.604
  H      -18.817     -17.365     -73.936
  H      -19.157     -19.787     -74.521
  H      -19.758     -19.313     -72.911
  P      -22.078     -16.601     -71.657
  C      -24.250     -15.225     -71.259
  O      -22.958     -15.274     -71.850
  O      -21.475     -16.430     -70.185
  O      -22.810     -17.890     -71.819
  H      -22.103     -16.778     -69.524
  H      -24.706     -14.282     -71.477
  H      -24.162     -15.343     -70.199
  H      -24.854     -16.014     -71.656

 6  7  8  9  10  11  12  13  14  15  26  29  33  34 0
 6-311+G(2d,p)
 ****
 36  38  39  40  41 0
 6-311+G(2d,p)
 ****
 1  2  3  4  5  16  17  18  19  20  21  22  23  24  25 0
 3-21G
 ****
 27  28  30  31  32  35  37  42  43  44  45  46  47 0
 3-21G
 ****
 48  49 0
 3-21G
 ****


