%nproc=1
%NoSave
%Mem=1900MB
#P OB98/GEN NMR

erre ene a

0 1
  C      -67.118     -40.266      18.097
  O      -67.286     -40.288      19.505
  P      -66.036     -40.751      20.399
  C      -65.215     -40.116      22.817
  O      -66.177     -39.961      21.786
  C      -65.515     -39.152      23.968
  O      -65.244     -37.795      23.555
  C      -66.965     -39.152      24.434
  O      -67.259     -40.280      25.244
  C      -67.043     -37.812      25.157
  O      -66.486     -37.925      26.478
  C      -66.142     -36.924      24.275
  N      -66.896     -36.069      23.361
  C      -67.177     -34.782      23.812
  O      -66.822     -34.363      24.912
  N      -67.900     -33.995      22.956
  C      -68.415     -34.379      21.752
  O      -69.094     -33.646      21.045
  C      -68.114     -35.759      21.343
  C      -67.380     -36.527      22.152
  O      -64.839     -40.019      19.633
  O      -65.909     -42.232      20.507
  H      -65.142     -39.218      19.170
  H      -66.462     -37.020      26.846
  H      -68.097     -33.051      23.252
  H      -68.512     -36.102      20.397
  H      -67.157     -37.549      21.871
  H      -65.510     -36.284      24.902
  H      -68.070     -37.450      25.264
  H      -67.635     -39.139      23.566
  H      -64.843     -39.394      24.801
  H      -64.222     -39.905      22.412
  H      -65.237     -41.152      23.171
  P      -68.794     -40.461      25.692
  C      -70.140     -42.633      26.243
  O      -68.912     -41.942      26.291
  O      -69.524     -40.550      24.270
  O      -69.293     -39.368      26.578
  H      -69.039     -41.096      23.630
  H      -69.946     -43.703      26.355
  H      -70.657     -42.465      25.294
  H      -70.778     -42.302      27.067
  H      -68.026     -39.940      17.635
  H      -66.875     -41.249      17.751
  H      -66.326     -39.592      17.843

 3  4  5  6  7  8  9  10  11  12  13  24  28  29  30  31  32 0
 6-311+G(2d,p)
 ****
 33  34 0
 6-311+G(2d,p)
 ****
 1  2  14  15  16  17  18  19  20  21  22  23  25  26  27 0
 3-21G
 ****
 35  36  37  38  39  40  41  42  43  44  45 0
 3-21G
 ****


