%nproc=1
%NoSave
%Mem=1900MB
#P OB98/GEN NMR

erre ene a

0 1
  C      -56.597    -121.646    -101.210
  O      -55.603    -122.637    -101.042
  H      -56.194    -120.688    -100.874
  H      -57.482    -121.882    -100.615
  H      -56.870    -121.558    -102.266
  P      -55.985    -124.160    -101.357
  C      -55.157    -124.100    -103.806
  O      -54.988    -124.654    -102.510
  C      -54.311    -124.856    -104.838
  O      -54.759    -124.486    -106.173
  C      -52.808    -124.541    -104.759
  O      -52.103    -125.710    -105.195
  C      -52.682    -123.427    -105.779
  O      -51.340    -123.193    -106.123
  C      -53.617    -123.948    -106.874
  N      -53.996    -122.914    -107.824
  C      -53.168    -122.767    -108.939
  O      -52.174    -123.480    -109.074
  N      -53.469    -121.796    -109.860
  C      -54.468    -120.997    -109.650
  N      -54.703    -120.046    -110.593
  C      -55.333    -121.081    -108.454
  C      -55.045    -122.056    -107.593
  O      -57.429    -124.427    -101.621
  O      -55.472    -124.961    -100.068
  H      -51.274    -122.533    -106.850
  H      -56.232    -125.209     -99.511
  H      -56.141    -120.379    -108.316
  H      -55.623    -122.197    -106.685
  H      -53.150    -124.774    -107.426
  H      -53.068    -122.488    -105.371
  H      -52.484    -124.257    -103.755
  H      -54.497    -125.931    -104.727
  H      -54.080    -120.018    -111.391
  H      -54.842    -123.053    -103.760
  H      -55.438    -119.358    -110.527
  H      -56.212    -124.138    -104.098
  P      -51.328    -126.688    -104.187
  C      -53.222    -128.314    -103.536
  O      -51.996    -128.143    -104.242
  O      -51.178    -126.139    -102.805
  O      -49.889    -126.915    -104.854
  H      -49.230    -127.055    -104.149
  H      -53.562    -129.322    -103.650
  H      -53.957    -127.643    -103.930
  H      -53.068    -128.105    -102.498

 6  7  8  9  10  11  12  13  14  15  16  26  30  31  32  33  35 0
 6-311+G(2d,p)
 ****
 37  38 0
 6-311+G(2d,p)
 ****
 1  2  3  4  5  17  18  19  20  21  22  23  24  25 0
 3-21G
 ****
 27  28  29  34  36  39  40  41  42  43  44  45  46 0
 3-21G
 ****


