%nproc=1
%NoSave
%Mem=1900MB
#P OB98/GEN NMR

erre ene a

0 1
  C      803.984    -934.682     248.473
  O      803.970    -934.956     247.073
  P      803.258    -934.035     245.966
  C      800.713    -934.707     245.903
  O      801.729    -933.823     246.387
  C      799.481    -934.668     246.825
  O      798.841    -933.351     246.741
  C      798.411    -935.701     246.425
  O      797.808    -936.354     247.547
  C      797.482    -934.886     245.523
  O      796.197    -935.481     245.373
  C      797.519    -933.521     246.160
  N      793.900    -930.860     243.771
  C      793.767    -931.999     244.518
  N      792.518    -932.502     244.667
  N      794.771    -932.598     245.115
  C      795.977    -932.021     244.826
  C      796.225    -930.882     244.062
  C      795.079    -930.196     243.482
  O      795.143    -929.178     242.828
  N      797.588    -930.611     244.021
  C      798.144    -931.553     244.719
  N      797.198    -932.429     245.260
  O      803.531    -934.427     244.561
  O      803.906    -932.565     246.219
  H      795.667    -934.891     244.797
  H      803.942    -932.153     245.349
  H      793.068    -930.395     243.369
  H      799.205    -931.653     244.894
  H      796.796    -933.442     246.993
  H      797.934    -934.860     244.535
  H      791.737    -932.178     244.137
  H      798.869    -936.533     245.847
  H      792.465    -933.451     245.022
  H      799.767    -934.781     247.857
  H      801.148    -935.717     245.924
  H      800.439    -934.470     244.886
  P      798.524    -937.347     248.613
  C      797.183    -939.560     248.739
  O      798.300    -938.844     248.150
  O      797.630    -937.227     249.929
  O      799.959    -936.986     248.908
  H      798.154    -936.871     250.661
  H      797.302    -940.610     248.548
  H      796.269    -939.206     248.302
  H      797.193    -939.379     249.809
  H      804.525    -935.452     248.982
  H      802.979    -934.650     248.840
  H      804.458    -933.739     248.647

 3  4  5  6  7  8  9  10  11  12  23  26  30  31 0
 6-311+G(2d,p)
 ****
 33  35  36  37  38 0
 6-311+G(2d,p)
 ****
 1  2  13  14  15  16  17  18  19  20  21  22  24  25 0
 3-21G
 ****
 27  28  29  32  34  39  40  41  42  43  44  45  46  47  48  49 0
 3-21G
 ****


