%nproc=1
%NoSave
%Mem=1900MB
#P OB98/GEN NMR

erre ene a

0 1
  C      415.887    -909.902     215.295
  O      414.928    -909.332     216.169
  P      415.166    -909.526     217.757
  C      416.636    -907.384     218.078
  O      416.574    -908.798     218.074
  C      416.209    -906.837     219.436
  O      417.090    -907.323     220.470
  C      416.228    -905.323     219.532
  O      415.051    -904.763     218.973
  C      416.340    -905.112     221.039
  O      415.056    -905.245     221.677
  C      417.276    -906.262     221.446
  N      420.740    -903.668     224.059
  C      419.360    -903.689     224.194
  N      418.839    -902.940     225.182
  N      418.571    -904.387     223.405
  C      419.244    -905.054     222.449
  C      420.603    -905.095     222.203
  C      421.460    -904.386     223.106
  O      422.685    -904.406     223.100
  N      420.897    -905.911     221.143
  C      419.725    -906.353     220.732
  N      418.678    -905.887     221.510
  O      415.521    -911.088     217.862
  O      414.035    -909.116     218.628
  H      414.891    -906.190     221.864
  H      414.728    -911.592     218.144
  H      421.310    -903.128     224.699
  H      419.552    -907.019     219.899
  H      417.022    -906.672     222.427
  H      416.705    -904.114     221.299
  H      419.388    -902.363     225.801
  H      417.117    -904.919     219.045
  H      417.834    -902.954     225.284
  H      415.206    -907.228     219.657
  H      415.967    -906.982     217.292
  H      417.660    -907.081     217.840
  P      414.935    -903.163     218.889
  C      416.159    -902.780     216.618
  O      416.182    -902.633     218.034
  O      415.288    -902.705     220.386
  O      413.595    -902.662     218.443
  H      414.731    -901.916     220.609
  H      416.742    -901.970     216.182
  H      415.128    -902.738     216.236
  H      416.610    -903.728     216.340
  H      415.610    -909.701     214.281
  H      415.927    -910.960     215.450
  H      416.848    -909.476     215.494

 3  4  5  6  7  8  9  10  11  12  23  26  30  31 0
 6-311+G(2d,p)
 ****
 33  35  36  37  38 0
 6-311+G(2d,p)
 ****
 1  2  13  14  15  16  17  18  19  20  21  22  24  25 0
 3-21G
 ****
 27  28  29  32  34  39  40  41  42  43  44  45  46  47  48  49 0
 3-21G
 ****


