%nproc=1
%NoSave
%Mem=1900MB
#P OB98/GEN NMR

erre ene a

0 1
  C      146.073     476.794     395.846
  O      145.681     476.633     397.198
  H      147.160     476.657     395.789
  H      145.832     477.794     395.497
  H      145.592     476.040     395.218
  P      144.139     476.856     397.579
  C      143.311     474.509     396.861
  O      143.287     475.911     396.607
  C      142.100     474.086     397.689
  O      140.881     474.355     396.958
  C      142.060     472.606     398.041
  O      142.977     472.311     399.073
  C      140.591     472.446     398.412
  O      140.335     472.936     399.731
  C      139.906     473.340     397.352
  N      139.418     472.608     396.177
  C      138.334     471.761     396.394
  O      137.851     471.634     397.527
  N      137.840     471.038     395.333
  C      138.345     471.204     394.150
  N      137.820     470.470     393.126
  C      139.475     472.131     393.869
  C      139.967     472.781     394.918
  O      143.674     478.277     397.624
  O      143.989     476.142     399.008
  H      139.362     472.939     399.827
  H      144.109     476.789     399.725
  H      139.859     472.243     392.856
  H      140.783     473.480     394.797
  H      139.062     473.887     397.793
  H      140.268     471.395     398.378
  H      142.266     471.996     397.150
  H      142.066     474.712     398.597
  H      137.029     469.865     393.364
  H      144.245     474.303     397.419
  H      138.012     470.627     392.146
  H      143.344     473.943     395.928
  P      143.314     470.799     399.487
  C      145.151     470.717     397.682
  O      143.968     470.119     398.169
  O      142.178     470.035     400.087
  O      144.590     470.948     400.463
  H      144.294     471.252     401.357
  H      145.488     470.187     396.816
  H      145.906     470.681     398.439
  H      144.955     471.736     397.422

 6  7  8  9  10  11  12  13  14  15  16  26  30  31  32  33  35 0
 6-311+G(2d,p)
 ****
 37  38 0
 6-311+G(2d,p)
 ****
 1  2  3  4  5  17  18  19  20  21  22  23  24  25 0
 3-21G
 ****
 27  28  29  34  36  39  40  41  42  43  44  45  46 0
 3-21G
 ****


