%nproc=1
%NoSave
%Mem=1900MB
#P OB98/GEN NMR

erre ene a

0 1
  C     -178.677     165.128     180.593
  O     -178.146     164.643     181.816
  P     -176.654     165.017     182.277
  C     -175.613     163.022     181.006
  O     -175.858     163.626     182.268
  C     -174.157     162.572     180.920
  O     -173.303     163.723     180.764
  C     -173.647     161.844     182.157
  O     -174.127     160.509     182.198
  C     -172.140     161.995     181.981
  O     -171.648     161.032     181.036
  C     -172.033     163.415     181.385
  N     -171.674     164.421     182.377
  C     -170.317     164.734     182.486
  O     -169.479     164.191     181.765
  N     -169.933     165.694     183.390
  C     -170.822     166.272     184.139
  N     -170.395     167.262     184.967
  C     -172.257     165.930     184.096
  C     -172.606     165.008     183.199
  O     -176.566     165.779     183.554
  O     -176.026     165.781     181.024
  H     -171.764     160.151     181.444
  H     -176.192     166.755     181.033
  H     -172.956     166.429     184.749
  H     -173.644     164.718     183.093
  H     -171.287     163.431     180.580
  H     -171.578     161.870     182.912
  H     -173.966     162.367     183.066
  H     -174.045     161.940     180.031
  H     -169.440     167.582     184.835
  H     -175.805     163.763     180.221
  H     -171.037     167.939     185.357
  H     -176.295     162.181     180.869
  P     -174.455     159.884     183.636
  C     -171.964     159.213     183.904
  O     -173.314     158.784     183.910
  O     -175.779     159.026     183.372
  O     -174.640     160.893     184.722
  H     -176.565     159.512     183.688
  H     -171.348     158.417     184.332
  H     -171.840     160.114     184.509
  H     -171.635     159.399     182.880
  H     -179.677     164.768     180.471
  H     -178.072     164.784     179.780
  H     -178.682     166.198     180.606

 3  4  5  6  7  8  9  10  11  12  13  23  27  28  29  30  32 0
 6-311+G(2d,p)
 ****
 34  35 0
 6-311+G(2d,p)
 ****
 1  2  14  15  16  17  18  19  20  21  22  24  25  26 0
 3-21G
 ****
 31  33  36  37  38  39  40  41  42  43  44  45  46 0
 3-21G
 ****


