%nproc=1
%NoSave
%Mem=1900MB
#P OB98/GEN NMR

erre ene a

0 1
  C       87.913     -29.008      17.417
  O       87.818     -30.333      17.899
  P       87.829     -30.658      19.470
  C       90.397     -30.563      19.373
  O       89.226     -30.092      20.023
  C       91.649     -29.869      19.911
  O       91.654     -28.478      19.487
  C       91.785     -29.888      21.440
  O       93.186     -29.971      21.717
  C       91.244     -28.527      21.833
  O       91.656     -28.128      23.133
  C       91.766     -27.665      20.676
  N       91.035     -26.409      20.558
  C       91.552     -25.312      21.249
  O       92.534     -25.447      21.982
  N       90.916     -24.100      21.142
  C       89.801     -24.021      20.486
  N       89.219     -22.794      20.409
  C       89.154     -25.180      19.846
  C       89.825     -26.329      19.907
  O       87.542     -32.077      19.826
  O       86.771     -29.622      20.076
  H       91.466     -28.863      23.756
  H       85.847     -29.930      19.900
  H       88.198     -25.077      19.358
  H       89.432     -27.234      19.467
  H       92.830     -27.434      20.816
  H       90.147     -28.550      21.823
  H       91.246     -30.710      21.917
  H       92.522     -30.349      19.452
  H       89.704     -22.022      20.850
  H       90.304     -30.342      18.307
  H       88.397     -22.606      19.855
  H       90.475     -31.649      19.485
  P       93.726     -30.566      23.104
  C       93.856     -28.207      24.088
  O       93.338     -29.515      24.247
  O       95.161     -30.985      23.096
  O       92.758     -31.808      23.407
  H       93.163     -32.377      24.088
  H       93.312     -27.526      24.748
  H       93.747     -27.865      23.055
  H       94.915     -28.197      24.362
  H       87.887     -29.015      16.347
  H       88.832     -28.573      17.749
  H       87.091     -28.433      17.790

 3  4  5  6  7  8  9  10  11  12  13  23  27  28  29  30  32 0
 6-311+G(2d,p)
 ****
 34  35 0
 6-311+G(2d,p)
 ****
 1  2  14  15  16  17  18  19  20  21  22  24  25  26 0
 3-21G
 ****
 31  33  36  37  38  39  40  41  42  43  44  45  46 0
 3-21G
 ****


