%nproc=1
%NoSave
%Mem=1900MB
#P OB98/GEN NMR

erre ene a

0 1
  C      295.044    -657.772    -574.072
  O      295.744    -658.860    -573.489
  P      297.166    -658.554    -572.805
  C      297.175    -660.784    -571.479
  O      297.843    -659.959    -572.417
  C      297.731    -662.202    -571.513
  O      297.319    -662.863    -572.760
  C      299.271    -662.281    -571.454
  O      299.659    -663.466    -570.732
  C      299.671    -662.473    -572.896
  O      300.961    -663.077    -573.009
  C      298.518    -663.339    -573.412
  N      300.482    -664.789    -577.831
  C      300.735    -665.259    -576.562
  N      301.714    -666.198    -576.463
  N      300.089    -664.881    -575.507
  C      299.152    -663.934    -575.755
  C      298.789    -663.396    -576.979
  C      299.521    -663.836    -578.144
  O      299.360    -663.434    -579.295
  N      297.759    -662.499    -576.849
  C      297.530    -662.450    -575.557
  N      298.360    -663.279    -574.849
  O      296.755    -657.940    -571.375
  O      298.037    -657.608    -573.573
  H      300.949    -663.854    -572.430
  H      296.898    -656.962    -571.386
  H      301.006    -665.115    -578.624
  H      296.780    -661.823    -575.060
  H      298.660    -664.386    -573.132
  H      299.698    -661.502    -573.396
  H      302.292    -666.488    -577.233
  H      299.740    -661.398    -570.994
  H      301.955    -666.520    -575.526
  H      297.281    -662.781    -570.693
  H      296.112    -660.815    -571.695
  H      297.301    -660.366    -570.469
  P      300.955    -663.317    -569.778
  C      299.676    -665.034    -568.297
  O      300.922    -664.568    -568.796
  O      300.572    -662.074    -568.845
  O      302.233    -663.099    -570.530
  H      301.376    -661.634    -568.520
  H      299.499    -666.042    -568.660
  H      298.844    -664.383    -568.605
  H      299.723    -665.035    -567.203
  H      294.121    -658.122    -574.486
  H      295.641    -657.338    -574.847
  H      294.842    -657.035    -573.323

 3  4  5  6  7  8  9  10  11  12  23  26  30  31 0
 6-311+G(2d,p)
 ****
 33  35  36  37  38 0
 6-311+G(2d,p)
 ****
 1  2  13  14  15  16  17  18  19  20  21  22  24  25 0
 3-21G
 ****
 27  28  29  32  34  39  40  41  42  43  44  45  46  47  48  49 0
 3-21G
 ****


