%nproc=1
%NoSave
%Mem=1900MB
#P OB98/GEN NMR

erre ene a

0 1
  C       89.766    -205.000     -67.745
  O       89.905    -204.796     -69.139
  P       88.589    -204.481     -69.996
  C       88.186    -207.003     -70.461
  O       88.357    -205.702     -71.011
  C       88.755    -208.072     -71.399
  O       88.892    -209.324     -70.685
  C       87.875    -208.342     -72.627
  O       88.711    -208.671     -73.749
  C       87.116    -209.594     -72.245
  O       86.664    -210.304     -73.402
  C       88.173    -210.332     -71.428
  N       87.387    -215.270     -70.680
  C       88.243    -214.641     -71.562
  N       88.920    -215.444     -72.416
  N       88.429    -213.352     -71.592
  C       87.682    -212.677     -70.687
  C       86.806    -213.191     -69.749
  C       86.603    -214.621     -69.735
  O       85.837    -215.234     -68.997
  N       86.263    -212.194     -68.979
  C       86.766    -211.078     -69.473
  N       87.604    -211.318     -70.530
  O       89.061    -203.284     -70.952
  O       87.401    -204.083     -69.188
  H       86.263    -211.138     -73.078
  H       88.682    -202.441     -70.641
  H       87.267    -216.274     -70.697
  H       86.540    -210.080     -69.116
  H       88.898    -210.845     -72.073
  H       86.240    -209.337     -71.637
  H       88.770    -216.443     -72.482
  H       87.207    -207.514     -72.898
  H       89.518    -215.006     -73.099
  H       89.763    -207.763     -71.704
  H       87.118    -207.191     -70.316
  H       88.681    -207.055     -69.485
  P       88.559    -207.720     -75.040
  C       86.586    -209.018     -76.143
  O       87.952    -208.653     -76.194
  O       90.076    -207.484     -75.497
  O       87.835    -206.445     -74.776
  H       90.150    -206.644     -75.993
  H       86.073    -208.601     -77.015
  H       86.092    -208.656     -75.232
  H       86.510    -210.107     -76.178
  H       90.726    -205.198     -67.316
  H       89.118    -205.833     -67.569
  H       89.349    -204.123     -67.296

 3  4  5  6  7  8  9  10  11  12  23  26  30  31 0
 6-311+G(2d,p)
 ****
 33  35  36  37  38 0
 6-311+G(2d,p)
 ****
 1  2  13  14  15  16  17  18  19  20  21  22  24  25 0
 3-21G
 ****
 27  28  29  32  34  39  40  41  42  43  44  45  46  47  48  49 0
 3-21G
 ****


