%nproc=1
%NoSave
%Mem=1900MB
#P OB98/GEN NMR

erre ene a

0 1
  C      120.323      82.739      96.984
  O      119.863      81.935      95.913
  P      118.330      81.968      95.463
  C      118.971      83.249      93.335
  O      118.140      83.235      94.489
  C      118.159      83.007      92.063
  O      117.115      84.017      91.961
  C      118.976      83.063      90.760
  O      118.388      82.117      89.863
  C      118.708      84.474      90.258
  O      118.955      84.626      88.867
  C      117.244      84.634      90.665
  N      116.592      88.963      88.012
  C      117.074      87.751      87.651
  N      117.241      86.654      88.425
  C      116.849      86.899      89.687
  C      116.366      88.091      90.206
  C      116.228      89.160      89.299
  N      115.704      90.390      89.639
  N      116.131      87.964      91.565
  C      116.461      86.721      91.852
  N      116.837      86.024      90.739
  O      117.338      81.882      96.575
  O      118.192      80.722      94.465
  H      118.579      85.478      88.577
  H      117.705      79.996      94.907
  H      117.355      87.643      86.606
  H      116.448      86.279      92.842
  H      116.568      84.120      89.973
  H      119.349      85.182      90.797
  H      120.042      82.859      90.894
  H      117.658      82.036      92.156
  H      119.715      82.455      93.446
  H      115.524      91.036      88.886
  H      115.186      90.480      90.514
  H      119.496      84.208      93.270
  P      119.255      81.522      88.648
  C      119.110      79.124      89.533
  O      119.966      80.204      89.201
  O      120.148      82.504      87.964
  O      118.139      80.940      87.647
  H      118.532      80.812      86.762
  H      118.678      79.297      90.525
  H      119.691      78.197      89.555
  H      118.304      79.021      88.803
  H      121.370      82.575      97.129
  H      119.794      82.479      97.877
  H      120.152      83.770      96.755

 3  4  5  6  7  8  9  10  11  12  22  25  29  30  31  32 0
 6-311+G(2d,p)
 ****
 33  36  37 0
 6-311+G(2d,p)
 ****
 1  2  13  14  15  16  17  18  19  20  21  23  24  26 0
 3-21G
 ****
 27  28  34  35  38  39  40  41  42  43  44  45  46  47  48 0
 3-21G
 ****


