%nproc=1
%NoSave
%Mem=1900MB
#P OB98/GEN NMR

erre ene a

0 1
  C     -210.876    -484.685    -641.797
  O     -212.135    -484.724    -642.474
  P     -213.416    -485.152    -641.619
  C     -214.235    -482.830    -640.834
  O     -213.643    -484.052    -640.464
  C     -214.819    -482.077    -639.622
  O     -215.867    -482.874    -638.989
  C     -213.783    -481.767    -638.547
  O     -214.141    -480.524    -637.930
  C     -213.984    -482.887    -637.538
  O     -213.444    -482.544    -636.253
  C     -215.511    -483.033    -637.602
  N     -216.452    -485.719    -633.352
  C     -216.008    -484.455    -633.563
  N     -215.749    -483.821    -634.725
  C     -216.043    -484.616    -635.762
  C     -216.504    -485.928    -635.724
  C     -216.687    -486.494    -634.450
  N     -217.113    -487.780    -634.247
  N     -216.638    -486.441    -636.996
  C     -216.291    -485.444    -637.792
  N     -215.954    -484.313    -637.103
  O     -212.890    -486.441    -640.797
  O     -214.616    -485.487    -642.429
  H     -213.954    -481.770    -635.917
  H     -213.302    -487.243    -641.166
  H     -215.818    -483.873    -632.650
  H     -216.234    -485.486    -638.875
  H     -216.026    -482.258    -637.022
  H     -213.489    -483.803    -637.882
  H     -212.741    -481.718    -638.908
  H     -215.271    -481.148    -639.977
  H     -215.037    -483.002    -641.569
  H     -217.193    -488.113    -633.294
  H     -217.261    -488.381    -635.060
  H     -213.496    -482.214    -641.351
  P     -213.786    -479.183    -638.737
  C     -216.023    -477.886    -638.864
  O     -215.137    -478.759    -639.514
  O     -212.830    -479.715    -639.918
  O     -213.144    -478.128    -637.919
  H     -212.230    -478.975    -640.199
  H     -216.413    -477.165    -639.582
  H     -215.563    -477.344    -638.039
  H     -216.876    -478.472    -638.476
  H     -210.111    -484.385    -642.483
  H     -210.648    -485.657    -641.411
  H     -210.926    -483.984    -640.990

 3  4  5  6  7  8  9  10  11  12  22  25  29  30  31  32 0
 6-311+G(2d,p)
 ****
 33  36  37 0
 6-311+G(2d,p)
 ****
 1  2  13  14  15  16  17  18  19  20  21  23  24  26 0
 3-21G
 ****
 27  28  34  35  38  39  40  41  42  43  44  45  46  47  48 0
 3-21G
 ****


