%nproc=1
%NoSave
%Mem=1900MB
#P OB98/GEN NMR

erre ene a

0 1
  C      365.953     -64.607      57.728
  O      364.868     -63.918      58.319
  H      366.128     -65.543      58.264
  H      365.698     -64.839      56.691
  H      366.857     -63.993      57.740
  P      365.130     -63.215      59.737
  C      365.722     -64.055      62.121
  O      365.346     -64.407      60.798
  C      364.924     -64.876      63.135
  O      363.597     -64.283      63.271
  C      364.743     -66.353      62.754
  O      364.842     -67.147      63.945
  C      363.312     -66.408      62.246
  O      362.729     -67.699      62.369
  C      362.644     -65.346      63.122
  N      357.916     -66.724      61.833
  C      358.827     -67.283      62.663
  N      360.050     -66.820      62.993
  C      360.272     -65.619      62.426
  C      359.443     -64.926      61.562
  C      358.212     -65.535      61.253
  N      357.310     -65.012      60.357
  N      360.051     -63.755      61.142
  C      361.240     -63.764      61.723
  N      361.416     -64.868      62.505
  O      363.679     -62.639      60.108
  O      366.174     -62.149      59.745
  H      363.138     -68.293      61.706
  H      363.573     -61.748      59.726
  H      358.539     -68.231      63.112
  H      362.006     -63.012      61.585
  H      362.385     -65.725      64.116
  H      363.287     -66.121      61.192
  H      365.465     -66.710      62.013
  H      365.413     -64.786      64.115
  H      365.516     -62.990      62.286
  H      356.506     -65.575      60.118
  H      357.565     -64.183      59.835
  H      366.798     -64.228      62.251
  P      366.229     -67.915      64.206
  C      367.410     -70.031      63.250
  O      366.406     -69.038      63.074
  O      365.929     -68.764      65.524
  O      367.399     -67.004      64.386
  H      366.742     -68.852      66.063
  H      367.400     -70.700      62.415
  H      367.216     -70.579      64.148
  H      368.369     -69.561      63.319

 6  7  8  9  10  11  12  13  14  15  25  28  32  33  34  35 0
 6-311+G(2d,p)
 ****
 36  39  40 0
 6-311+G(2d,p)
 ****
 1  2  3  4  5  16  17  18  19  20  21  22  23  24 0
 3-21G
 ****
 26  27  29  30  31  37  38  41  42  43  44  45  46  47 0
 3-21G
 ****
 48 0
 3-21G
 ****


