%nproc=1
%NoSave
%Mem=1900MB
#P OB98/GEN NMR

erre ene a

0 1
  C     -169.509      44.831     258.177
  O     -168.156      44.681     258.561
  P     -167.501      43.223     258.617
  C     -167.877      43.366     261.156
  O     -167.945      42.540     259.998
  C     -167.186      42.624     262.297
  O     -167.927      41.439     262.649
  C     -165.780      42.142     261.959
  O     -164.855      43.212     261.999
  C     -165.570      41.079     263.030
  O     -165.167      41.680     264.272
  C     -166.976      40.475     263.157
  N     -168.993      35.794     263.367
  C     -168.884      36.771     264.293
  N     -168.296      37.981     264.171
  C     -167.766      38.124     262.947
  C     -167.767      37.204     261.909
  C     -168.439      35.993     262.146
  N     -168.611      35.016     261.190
  N     -167.090      37.709     260.816
  C     -166.682      38.905     261.190
  N     -167.123      39.222     262.444
  O     -166.037      43.167     258.328
  O     -168.324      42.391     257.525
  H     -165.815      42.381     264.478
  H     -167.713      42.073     256.833
  H     -169.337      36.557     265.257
  H     -166.087      39.578     260.588
  H     -167.246      40.286     264.204
  H     -164.797      40.352     262.757
  H     -165.775      41.664     260.974
  H     -167.168      43.286     263.172
  H     -168.899      43.629     261.450
  H     -169.232      34.257     261.421
  H     -168.479      35.270     260.215
  H     -167.331      44.283     260.915
  P     -163.434      43.062     261.281
  C     -162.016      42.381     263.306
  O     -162.612      41.952     262.096
  O     -162.702      44.337     261.023
  O     -163.781      42.306     259.910
  H     -163.163      42.596     259.215
  H     -161.103      42.939     263.086
  H     -161.760      41.499     263.900
  H     -162.704      43.009     263.879
  H     -169.772      45.868     258.197
  H     -170.135      44.291     258.857
  H     -169.643      44.448     257.187

 3  4  5  6  7  8  9  10  11  12  22  25  29  30  31  32 0
 6-311+G(2d,p)
 ****
 33  36  37 0
 6-311+G(2d,p)
 ****
 1  2  13  14  15  16  17  18  19  20  21  23  24  26 0
 3-21G
 ****
 27  28  34  35  38  39  40  41  42  43  44  45  46  47  48 0
 3-21G
 ****


