%nproc=1
%NoSave
%Mem=1900MB
#P OB98/GEN NMR

erre ene a

0 1
  C     -899.390    1019.032     102.484
  O     -899.080    1019.487     103.796
  H     -900.000    1018.127     102.559
  H     -898.460    1018.791     101.947
  H     -899.950    1019.791     101.942
  P     -898.110    1020.755     103.902
  C     -896.230    1019.393     105.111
  O     -896.610    1020.184     103.983
  C     -894.730    1019.190     105.112
  O     -894.320    1018.495     103.893
  C     -893.910    1020.481     105.125
  O     -893.840    1021.060     106.412
  C     -892.560    1019.989     104.636
  O     -891.780    1019.448     105.702
  C     -892.960    1018.899     103.617
  N     -892.800    1019.351     102.236
  C     -891.490    1019.332     101.737
  O     -890.530    1018.940     102.399
  N     -891.320    1019.790     100.473
  C     -892.300    1020.316      99.673
  O     -892.080    1020.782      98.563
  C     -893.660    1020.343     100.260
  C     -893.840    1019.874     101.494
  O     -898.380    1021.288     105.389
  O     -898.320    1021.815     102.880
  H     -898.900    1022.113     105.350
  H     -892.260    1018.643     106.010
  H     -890.380    1019.778     100.098
  H     -894.460    1020.763      99.652
  H     -894.830    1019.896     101.948
  H     -892.340    1018.006     103.754
  H     -892.000    1020.806     104.182
  H     -894.320    1021.193     104.400
  H     -894.450    1018.545     105.964
  H     -896.720    1018.420     105.058
  H     -896.560    1019.920     106.015
  P     -893.150    1022.516     106.551
  C     -891.520    1021.567     108.411
  O     -891.680    1022.218     107.148
  O     -893.970    1023.129     107.766
  O     -893.170    1023.294     105.278
  H     -894.330    1022.436     108.350
  H     -890.478    1021.462     108.629
  H     -891.976    1020.600     108.374
  H     -891.987    1022.152     109.176

 6  7  8  9  10  11  12  13  14  15  16  27  31  32  33  34  35 0
 6-311+G(2d,p)
 ****
 36  37 0
 6-311+G(2d,p)
 ****
 1  2  3  4  5  17  18  19  20  21  22  23  24  25 0
 3-21G
 ****
 26  28  29  30  38  39  40  41  42  43  44  45 0
 3-21G
 ****


