%nproc=1
%NoSave
%Mem=1900MB
#P OB98/GEN NMR

erre ene a

0 1
  C      489.332     387.677    -960.469
  O      490.736     387.613    -960.293
  H      488.919     386.664    -960.443
  H      489.098     388.127    -961.436
  H      488.866     388.261    -959.666
  P      491.504     389.007    -960.098
  C      493.313     389.873    -958.449
  O      492.357     388.864    -958.746
  C      493.879     389.678    -957.049
  O      492.889     390.015    -956.049
  C      494.312     388.238    -956.746
  O      495.616     387.965    -957.248
  C      494.299     388.264    -955.217
  O      495.477     388.939    -954.740
  C      493.050     389.099    -954.926
  N      489.830     387.029    -951.603
  C      490.971     387.757    -951.374
  N      491.328     387.964    -950.098
  N      491.731     388.241    -952.333
  C      491.264     387.964    -953.574
  C      490.126     387.249    -953.915
  C      489.311     386.718    -952.849
  O      488.270     386.092    -952.996
  N      489.982     387.173    -955.287
  C      491.035     387.811    -955.766
  N      491.833     388.314    -954.773
  O      490.325     390.024    -959.693
  O      492.265     389.499    -961.287
  H      496.252     388.504    -955.155
  H      490.520     390.902    -960.071
  H      489.301     386.670    -950.821
  H      491.230     387.960    -956.818
  H      493.152     389.707    -954.023
  H      494.301     387.255    -954.792
  H      490.845     387.574    -949.308
  H      493.575     387.509    -957.103
  H      492.158     388.524    -949.900
  H      494.728     390.361    -956.914
  H      492.825     390.862    -958.506
  H      494.120     389.830    -959.200
  P      495.926     386.468    -957.739
  C      497.688     385.418    -959.344
  O      497.013     386.599    -958.909
  O      494.584     386.045    -958.510
  O      496.262     385.506    -956.639
  H      494.503     385.082    -958.537
  H      498.377     385.668    -960.124
  H      496.972     384.713    -959.712
  H      498.221     384.988    -958.522

 6  7  8  9  10  11  12  13  14  15  26  29  33  34 0
 6-311+G(2d,p)
 ****
 36  38  39  40  41 0
 6-311+G(2d,p)
 ****
 1  2  3  4  5  16  17  18  19  20  21  22  23  24  25 0
 3-21G
 ****
 27  28  30  31  32  35  37  42  43  44  45  46  47 0
 3-21G
 ****
 48  49 0
 3-21G
 ****


