%nproc=1
%NoSave
%Mem=1900MB
#P OB98/GEN NMR

erre ene a

0 1
  C     -230.661    -164.883    -116.050
  O     -230.034    -164.343    -117.201
  P     -230.959    -163.532    -118.238
  C     -231.155    -164.942    -120.406
  O     -231.696    -164.648    -119.121
  C     -229.982    -165.910    -120.285
  O     -230.334    -166.991    -119.403
  C     -229.567    -166.567    -121.591
  O     -228.743    -165.716    -122.376
  C     -228.786    -167.769    -121.080
  O     -227.446    -167.367    -120.743
  C     -229.566    -168.153    -119.811
  N     -230.182    -173.160    -119.353
  C     -229.094    -172.367    -119.033
  N     -228.030    -172.997    -118.488
  N     -229.054    -171.074    -119.232
  C     -230.204    -170.576    -119.747
  C     -231.345    -171.262    -120.108
  C     -231.355    -172.696    -119.931
  O     -232.262    -173.459    -120.258
  N     -232.309    -170.408    -120.581
  C     -231.767    -169.210    -120.473
  N     -230.479    -169.263    -119.999
  O     -229.897    -162.897    -119.253
  O     -231.835    -162.493    -117.624
  H     -226.994    -167.148    -121.578
  H     -230.271    -162.094    -119.664
  H     -230.163    -174.146    -119.166
  H     -232.269    -168.284    -120.724
  H     -228.887    -168.395    -118.985
  H     -228.703    -168.572    -121.824
  H     -228.052    -173.961    -118.192
  H     -230.442    -166.912    -122.157
  H     -227.242    -172.426    -118.212
  H     -229.137    -165.368    -119.836
  H     -230.805    -164.014    -120.870
  H     -231.944    -165.370    -121.032
  P     -228.983    -165.747    -123.964
  C     -227.183    -167.161    -125.194
  O     -228.389    -167.153    -124.454
  O     -227.937    -164.670    -124.515
  O     -230.384    -165.439    -124.379
  H     -228.246    -164.302    -125.362
  H     -226.491    -166.388    -124.841
  H     -227.404    -166.996    -126.252
  H     -226.708    -168.135    -125.078
  H     -229.933    -165.392    -115.453
  H     -231.423    -165.572    -116.349
  H     -231.100    -164.092    -115.479

 3  4  5  6  7  8  9  10  11  12  23  26  30  31  33  0
 6-311+G(2d,p)
 ****
 35  36  37  38 0
 6-311+G(2d,p)
 ****
 1  2  13  14  15  16  17  18  19  20  21  22  24  25  27  28  29 0
 3-21G
 ****
 32  34  39  40  41  42  43  44  45  46  47  48  49 0
 3-21G
 ****


