%nproc=1
%NoSave
%Mem=1900MB
#P OB98/GEN NMR

erre ene a

0 1
  C     -157.792      -4.433     870.007
  O     -157.110      -4.578     868.779
  H     -157.132      -4.768     870.822
  H     -158.700      -5.049     870.027
  H     -158.052      -3.385     870.181
  P     -157.953      -4.399     867.425
  C     -157.548      -1.848     867.274
  O     -157.307      -3.131     866.678
  C     -156.922      -0.723     866.439
  O     -155.475      -0.804     866.508
  C     -157.255      -0.815     864.940
  O     -158.610      -0.522     864.653
  C     -156.149       0.031     864.325
  O     -156.443       1.431     864.287
  C     -154.970      -0.224     865.287
  N     -153.929      -1.061     864.675
  C     -153.069      -0.428     863.794
  O     -153.148       0.766     863.511
  N     -152.115      -1.224     863.216
  C     -151.986      -2.569     863.374
  O     -151.138      -3.229     862.802
  C     -152.956      -3.193     864.315
  C     -153.871      -2.430     864.900
  O     -159.441      -4.313     867.588
  O     -157.475      -5.628     866.523
  H     -157.211       1.545     863.692
  H     -158.102      -5.786     865.778
  H     -151.468      -0.771     862.580
  H     -152.877      -4.267     864.465
  H     -154.586      -2.867     865.581
  H     -154.500       0.730     865.577
  H     -155.949      -0.271     863.292
  H     -157.082      -1.843     864.619
  H     -157.229       0.237     866.864
  H     -157.097      -1.856     868.275
  H     -158.625      -1.689     867.374
  P     -159.227      -0.707     863.190
  C     -160.671      -2.824     863.699
  O     -160.657      -1.435     863.344
  O     -158.305      -1.170     862.114
  O     -159.655       0.807     862.834
  H     -159.535       0.937     861.875
  H     -161.683      -3.165     863.764
  H     -160.189      -2.955     864.645
  H     -160.151      -3.388     862.953

 6  7  8  9  10  11  12  13  14  15  16  26  31  32  33  34  35 0
 6-311+G(2d,p)
 ****
 36  37 0
 6-311+G(2d,p)
 ****
 1  2  3  4  5  17  18  19  20  21  22  23  24  25 0
 3-21G
 ****
 27  28  29  30  38  39  40  41  42  43  44  45 0
 3-21G
 ****


