%nproc=1
%NoSave
%Mem=1900MB
#P OB98/GEN NMR

erre ene a

0 1
  C      -74.881     279.938    1304.839
  O      -74.596     281.339    1304.792
  P      -75.675     282.504    1304.978
  C      -74.856     283.697    1307.173
  O      -75.798     282.844    1306.535
  C      -75.394     284.208    1308.516
  O      -76.763     284.683    1308.319
  C      -75.455     283.103    1309.584
  O      -75.029     283.536    1310.874
  C      -76.881     282.588    1309.467
  O      -77.330     281.885    1310.612
  C      -77.646     283.861    1309.116
  N      -82.053     281.281    1308.966
  C      -80.977     281.129    1309.809
  N      -81.066     280.146    1310.734
  N      -79.906     281.859    1309.750
  C      -79.895     282.748    1308.734
  C      -80.892     282.988    1307.817
  C      -82.112     282.211    1307.921
  O      -83.106     282.313    1307.211
  N      -80.545     283.975    1306.939
  C      -79.314     284.321    1307.310
  N      -78.893     283.600    1308.400
  O      -76.962     282.333    1304.217
  O      -74.932     283.804    1304.380
  H      -78.161     281.421    1310.365
  H      -75.629     284.375    1303.992
  H      -82.875     280.707    1309.076
  H      -78.718     285.088    1306.835
  H      -77.922     284.435    1309.999
  H      -76.903     281.882    1308.625
  H      -81.822     279.475    1310.760
  H      -74.753     282.289    1309.353
  H      -80.190     279.899    1311.194
  H      -74.778     285.064    1308.846
  H      -74.690     284.524    1306.499
  H      -73.895     283.178    1307.299
  P      -73.550     283.548    1311.485
  C      -73.393     286.048    1312.107
  O      -72.915     284.999    1311.247
  O      -72.686     282.619    1310.505
  O      -73.442     283.052    1312.896
  H      -72.331     281.866    1311.001
  H      -73.093     287.010    1311.665
  H      -72.956     285.936    1313.085
  H      -74.485     286.002    1312.160
  H      -73.978     279.385    1304.684
  H      -75.586     279.692    1304.073
  H      -75.292     279.689    1305.795

 3  4  5  6  7  8  9  10  11  12  23  26  30  31 0
 6-311+G(2d,p)
 ****
 33  35  36  37  38 0
 6-311+G(2d,p)
 ****
 1  2  13  14  15  16  17  18  19  20  21  22  24  25 0
 3-21G
 ****
 27  28  29  32  34  39  40  41  42  43  44  45  46  47  48  49 0
 3-21G
 ****


