%nproc=1
%NoSave
%Mem=1900MB
#P OB98/GEN NMR

erre ene a

0 1
  C     -506.326    -104.079     425.132
  O     -505.167    -104.405     424.400
  H     -506.997    -104.944     425.136
  H     -506.846    -103.240     424.660
  H     -506.076    -103.826     426.167
  P     -503.970    -103.333     424.399
  C     -503.162    -103.865     421.983
  O     -502.864    -103.889     423.376
  C     -502.606    -105.113     421.296
  O     -503.341    -106.274     421.764
  C     -502.710    -105.068     419.770
  O     -501.531    -105.669     419.215
  C     -503.915    -105.946     419.470
  O     -503.874    -106.504     418.153
  C     -503.846    -106.971     420.610
  N     -505.153    -107.574     420.867
  C     -505.341    -108.877     420.397
  O     -504.443    -109.453     419.787
  N     -506.566    -109.472     420.563
  C     -507.542    -108.793     421.086
  N     -508.741    -109.430     421.202
  C     -507.407    -107.390     421.538
  C     -506.197    -106.858     421.398
  O     -503.283    -103.545     425.828
  O     -504.379    -101.921     424.161
  H     -504.740    -106.932     417.976
  H     -502.911    -102.703     426.164
  H     -508.254    -106.862     421.937
  H     -505.999    -105.830     421.699
  H     -503.130    -107.769     420.364
  H     -504.831    -105.350     419.548
  H     -502.821    -104.058     419.377
  H     -501.560    -105.246     421.615
  H     -508.797    -110.379     420.869
  H     -502.707    -102.978     421.538
  H     -509.582    -108.984     421.549
  H     -504.246    -103.806     421.849
  P     -500.908    -104.955     417.924
  C     -500.161    -107.244     416.936
  O     -499.778    -105.926     417.315
  O     -500.067    -103.739     418.542
  O     -501.931    -104.485     416.939
  H     -500.517    -102.898     418.346
  H     -499.310    -107.766     416.552
  H     -500.918    -107.192     416.182
  H     -500.543    -107.764     417.790

 6  7  8  9  10  11  12  13  14  15  16  26  30  31  32  33  35 0
 6-311+G(2d,p)
 ****
 37  38 0
 6-311+G(2d,p)
 ****
 1  2  3  4  5  17  18  19  20  21  22  23  24  25 0
 3-21G
 ****
 27  28  29  34  36  39  40  41  42  43  44  45  46 0
 3-21G
 ****


