%nproc=1
%NoSave
%Mem=1900MB
#P OB98/GEN NMR

erre ene a

0 1
  C     -891.270    -330.955    -897.520
  O     -892.180    -330.694    -898.560
  P     -893.420    -331.701    -898.610
  C     -895.210    -330.055    -897.710
  O     -894.500    -331.244    -897.490
  C     -896.310    -329.806    -896.640
  O     -897.380    -330.789    -896.750
  C     -895.750    -329.819    -895.220
  O     -896.470    -328.941    -894.380
  C     -896.130    -331.323    -894.710
  O     -896.100    -331.373    -893.350
  C     -897.480    -331.436    -895.480
  N     -897.880    -332.779    -895.590
  C     -898.750    -333.340    -894.540
  O     -899.010    -332.643    -893.570
  N     -899.230    -334.609    -894.700
  C     -898.850    -335.340    -895.710
  N     -899.350    -336.609    -895.770
  C     -897.900    -334.841    -896.750
  C     -897.500    -333.609    -896.650
  O     -892.850    -333.085    -898.060
  O     -893.990    -331.861    -900.000
  H     -897.080    -330.909    -893.010
  H     -893.100    -333.808    -898.660
  H     -897.630    -335.487    -897.600
  H     -896.810    -333.095    -897.360
  H     -898.310    -330.869    -894.870
  H     -895.360    -332.037    -895.200
  H     -894.680    -329.655    -895.090
  H     -896.750    -328.788    -896.790
  H     -900.000    -336.861    -895.070
  H     -895.720    -330.072    -898.690
  H     -899.120    -337.244    -896.540
  H     -894.510    -329.232    -897.700
  P     -895.690    -327.515    -894.030
  C     -898.030    -326.423    -894.190
  O     -896.730    -326.447    -894.590
  O     -894.530    -327.558    -895.070
  O     -895.300    -327.359    -892.610
  H     -893.980    -326.756    -894.930
  H     -898.570    -325.488    -894.520
  H     -898.090    -326.415    -893.050
  H     -898.600    -327.282    -894.520
  H     -890.474    -330.241    -897.555
  H     -890.870    -331.941    -897.635
  H     -891.773    -330.881    -896.579

 3  4  5  6  7  8  9  10  11  12  13  21  23  27  28  29  30  32 0
 6-311+G(2d,p)
 ****
 34  35 0
 6-311+G(2d,p)
 ****
 1  2  14  15  16  17  18  19  20  22  24  25  26 0
 3-21G
 ****
 31  33  36  37  38  39  40  41  42  43  44  45  46 0
 3-21G
 ****


