%nproc=1
%NoSave
%Mem=1900MB
#P OB98/GEN NMR

erre ene a

0 1
  C     -122.276    -221.778    -127.032
  O     -122.145    -223.098    -127.539
  P     -120.815    -223.947    -127.286
  C     -121.202    -225.098    -129.610
  O     -120.308    -224.519    -128.685
  C     -120.702    -224.799    -131.035
  O     -120.948    -223.418    -131.366
  C     -119.203    -225.058    -131.171
  O     -118.965    -226.362    -131.672
  C     -118.760    -223.957    -132.117
  O     -119.035    -224.327    -133.479
  C     -119.676    -222.788    -131.682
  N     -119.265    -221.981    -130.516
  C     -119.775    -220.695    -130.354
  O     -120.588    -220.183    -131.118
  N     -119.293    -219.997    -129.273
  C     -118.410    -220.467    -128.348
  O     -117.809    -219.764    -127.540
  C     -118.125    -221.902    -128.421
  C     -118.538    -222.578    -129.495
  O     -121.354    -225.246    -126.526
  O     -119.746    -223.248    -126.509
  H     -118.911    -223.529    -134.023
  H     -121.225    -225.161    -125.565
  H     -119.553    -219.012    -129.230
  H     -117.542    -222.353    -127.624
  H     -118.307    -223.637    -129.588
  H     -119.842    -222.093    -132.510
  H     -117.686    -223.793    -132.054
  H     -118.705    -224.913    -130.202
  H     -121.265    -225.419    -131.744
  H     -122.204    -224.694    -129.469
  H     -121.259    -226.180    -129.454
  P     -117.569    -227.083    -131.371
  C     -117.982    -228.734    -133.290
  O     -117.123    -227.739    -132.766
  O     -117.557    -228.006    -130.196
  O     -116.560    -225.857    -131.170
  H     -116.442    -225.673    -130.217
  H     -117.668    -228.966    -134.313
  H     -119.016    -228.383    -133.304
  H     -117.905    -229.644    -132.681
  H     -123.232    -221.384    -127.307
  H     -121.504    -221.160    -127.442
  H     -122.190    -221.795    -125.966

 3  4  5  6  7  8  9  10  11  12  13  23  28  29  30  31  32 0
 6-311+G(2d,p)
 ****
 33  34 0
 6-311+G(2d,p)
 ****
 1  2  14  15  16  17  18  19  20  21  22  24  25  26  27 0
 3-21G
 ****
 35  36  37  38  39  40  41  42  43  44  45 0
 3-21G
 ****


