%nproc=1
%NoSave
%Mem=1900MB
#P OB98/GEN NMR

erre ene a

0 1
  C       58.653    -425.974    -338.074
  O       59.414    -427.102    -338.455
  H       58.958    -425.665    -337.068
  H       57.589    -426.229    -338.055
  H       58.828    -425.146    -338.767
  P       59.117    -427.721    -339.907
  C       56.968    -428.945    -339.121
  O       57.527    -427.957    -339.975
  C       56.002    -429.841    -339.901
  O       54.882    -429.034    -340.365
  C       56.635    -430.513    -341.131
  O       56.101    -431.837    -341.257
  C       56.126    -429.663    -342.288
  O       56.139    -430.372    -343.522
  C       54.731    -429.303    -341.775
  N       51.431    -427.935    -345.327
  C       51.727    -429.185    -344.807
  N       51.045    -430.233    -345.321
  N       52.624    -429.383    -343.878
  C       53.207    -428.242    -343.441
  C       53.015    -426.953    -343.878
  C       52.035    -426.747    -344.927
  O       51.747    -425.667    -345.444
  N       53.837    -426.075    -343.207
  C       54.521    -426.832    -342.370
  N       54.174    -428.158    -342.474
  O       59.705    -429.209    -339.808
  O       59.689    -426.965    -341.059
  H       55.933    -431.311    -343.327
  H       60.017    -429.518    -340.679
  H       50.738    -427.836    -346.052
  H       55.275    -426.480    -341.680
  H       54.015    -430.126    -341.895
  H       56.748    -428.766    -342.397
  H       50.320    -430.150    -346.019
  H       57.727    -430.557    -341.094
  H       51.242    -431.156    -344.945
  H       55.584    -430.593    -339.216
  H       56.426    -428.449    -338.304
  H       57.775    -429.553    -338.696
  P       57.005    -433.055    -340.731
  C       58.438    -433.474    -342.852
  O       58.414    -433.033    -341.504
  O       56.264    -434.341    -341.341
  O       57.093    -433.140    -339.240
  H       55.808    -434.828    -340.627
  H       59.435    -433.403    -343.233
  H       57.788    -432.860    -343.440
  H       58.109    -434.491    -342.900

 6  7  8  9  10  11  12  13  14  15  26  29  33  34 0
 6-311+G(2d,p)
 ****
 36  38  39  40  41 0
 6-311+G(2d,p)
 ****
 1  2  3  4  5  16  17  18  19  20  21  22  23  24  25 0
 3-21G
 ****
 27  28  30  31  32  35  37  42  43  44  45  46  47 0
 3-21G
 ****
 48  49 0
 3-21G
 ****


