%nproc=1
%NoSave
%Mem=1900MB
#P OB98/GEN NMR

erre ene a

0 1
  C     -297.544      29.279    -102.571
  O     -296.233      28.882    -102.935
  P     -295.335      29.924    -103.767
  C     -295.859      28.620    -105.958
  O     -295.850      29.866    -105.285
  C     -295.389      28.787    -107.409
  O     -296.532      29.156    -108.221
  C     -294.320      29.868    -107.616
  O     -293.491      29.431    -108.701
  C     -295.135      31.076    -108.052
  O     -294.354      32.039    -108.755
  C     -296.215      30.399    -108.885
  N     -298.149      34.661    -110.814
  C     -296.846      34.194    -110.820
  N     -295.949      34.948    -111.489
  N     -296.462      33.096    -110.230
  C     -297.475      32.439    -109.614
  C     -298.791      32.820    -109.501
  C     -299.213      34.021    -110.190
  O     -300.371      34.422    -110.282
  N     -299.505      31.944    -108.723
  C     -298.634      30.993    -108.433
  N     -297.403      31.231    -108.988
  O     -293.906      29.200    -103.821
  O     -295.256      31.307    -103.197
  H     -293.888      31.578    -109.477
  H     -293.332      29.504    -103.092
  H     -298.388      35.508    -111.304
  H     -298.836      30.118    -107.835
  H     -295.883      30.173    -109.905
  H     -295.559      31.569    -107.171
  H     -296.177      35.793    -111.995
  H     -293.715      30.065    -106.726
  H     -294.991      34.612    -111.541
  H     -295.028      27.816    -107.769
  H     -296.878      28.228    -105.967
  H     -295.219      27.905    -105.427
  P     -291.915      29.303    -108.431
  C     -291.333      31.311    -109.967
  O     -291.260      30.742    -108.671
  O     -291.407      28.455    -109.700
  O     -291.548      28.619    -107.156
  H     -290.649      27.901    -109.437
  H     -291.224      32.394    -109.884
  H     -292.286      31.087    -110.452
  H     -290.517      30.918    -110.578
  H     -298.017      28.489    -102.026
  H     -298.110      29.492    -103.454
  H     -297.494      30.155    -101.959

 3  4  5  6  7  8  9  10  11  12  23  26  30  31 0
 6-311+G(2d,p)
 ****
 33  35  36  37  38 0
 6-311+G(2d,p)
 ****
 1  2  13  14  15  16  17  18  19  20  21  22  24  25 0
 3-21G
 ****
 27  28  29  32  34  39  40  41  42  43  44  45  46  47  48  49 0
 3-21G
 ****


