%nproc=1
%NoSave
%Mem=1900MB
#P OB98/GEN NMR

erre ene a

0 1
  C      375.170     -19.619     754.853
  O      375.503     -19.616     753.481
  H      374.810     -20.616     755.123
  H      374.374     -18.897     755.044
  H      376.042     -19.383     755.471
  P      376.326     -18.375     752.887
  C      378.560     -18.999     754.018
  O      377.495     -18.058     753.942
  C      379.913     -18.307     753.787
  O      380.131     -17.336     754.856
  C      381.113     -19.270     753.791
  O      382.102     -18.721     752.909
  C      381.582     -19.177     755.231
  O      382.895     -19.661     755.380
  C      381.372     -17.681     755.500
  N      381.352     -17.377     756.929
  C      382.555     -16.994     757.502
  O      383.618     -16.952     756.875
  N      382.531     -16.716     758.842
  C      381.444     -16.833     759.655
  O      381.483     -16.602     760.858
  C      380.201     -17.281     759.010
  C      380.206     -17.522     757.693
  O      375.513     -17.189     752.483
  O      377.133     -18.992     751.648
  H      382.950     -20.595     755.084
  H      377.270     -18.313     750.964
  H      383.398     -16.431     759.267
  H      379.322     -17.392     759.624
  H      379.308     -17.849     757.184
  H      382.172     -17.091     755.038
  H      380.936     -19.776     755.886
  H      380.850     -20.285     753.489
  H      379.863     -17.741     752.852
  H      378.399     -19.754     753.245
  H      378.552     -19.481     754.999
  P      382.288     -19.248     751.398
  C      380.711     -17.708     750.051
  O      380.911     -19.010     750.607
  O      382.824     -20.639     751.295
  O      383.293     -18.193     750.728
  H      383.794     -18.634     750.011
  H      379.765     -17.674     749.553
  H      381.491     -17.496     749.350
  H      380.728     -16.979     750.834

 6  7  8  9  10  11  12  13  14  15  16  26  31  32  33  34  35 0
 6-311+G(2d,p)
 ****
 36  37 0
 6-311+G(2d,p)
 ****
 1  2  3  4  5  17  18  19  20  21  22  23  24  25 0
 3-21G
 ****
 27  28  29  30  38  39  40  41  42  43  44  45 0
 3-21G
 ****


