%nproc=1
%NoSave
%Mem=1900MB
#P OB98/GEN NMR

erre ene a

0 1
  C     1255.915    -663.541     475.658
  O     1255.103    -662.917     476.644
  P     1253.880    -662.006     476.117
  C     1252.210    -663.998     476.352
  O     1252.539    -662.638     476.715
  C     1251.261    -664.597     477.407
  O     1251.964    -665.009     478.574
  C     1250.196    -663.606     477.920
  O     1249.113    -663.477     477.028
  C     1249.753    -664.302     479.211
  O     1248.820    -665.344     478.908
  C     1251.103    -664.847     479.742
  N     1250.912    -663.311     484.559
  C     1250.251    -664.345     483.933
  N     1249.319    -665.009     484.672
  N     1250.403    -664.689     482.661
  C     1251.342    -663.908     482.048
  C     1252.124    -662.905     482.574
  C     1251.896    -662.522     483.945
  O     1252.431    -661.598     484.563
  N     1252.975    -662.401     481.622
  C     1252.749    -663.106     480.552
  N     1251.725    -664.018     480.754
  O     1253.799    -662.340     474.557
  O     1254.049    -660.535     476.361
  H     1249.156    -665.804     478.114
  H     1253.273    -661.654     474.090
  H     1250.732    -663.103     485.521
  H     1253.253    -662.982     479.612
  H     1250.957    -665.849     480.141
  H     1249.278    -663.602     479.912
  H     1249.074    -664.723     485.615
  H     1250.620    -662.615     478.149
  H     1248.749    -665.707     484.214
  H     1250.769    -665.466     476.969
  H     1253.140    -664.579     476.336
  H     1251.724    -664.001     475.375
  P     1248.297    -662.082     477.054
  C     1249.915    -660.787     475.407
  O     1248.621    -661.393     475.643
  O     1249.137    -661.195     478.116
  O     1246.862    -662.195     477.451
  H     1248.597    -660.538     478.517
  H     1250.016    -660.627     474.351
  H     1250.719    -661.462     475.752
  H     1249.974    -659.837     475.953
  H     1256.683    -664.111     476.137
  H     1256.361    -662.792     475.037
  H     1255.312    -664.189     475.057

 3  4  5  6  7  8  9  10  11  12  23  26  30  31 0
 6-311+G(2d,p)
 ****
 33  35  36  37  38 0
 6-311+G(2d,p)
 ****
 1  2  13  14  15  16  17  18  19  20  21  22  24  25 0
 3-21G
 ****
 27  28  29  32  34  39  40  41  42  43  44  45  46  47  48  49 0
 3-21G
 ****


