%nproc=1
%NoSave
%Mem=1900MB
#P OB98/GEN NMR

erre ene a

0 1
  C     -174.663    -175.936     221.205
  O     -174.209    -176.677     220.060
  P     -175.273    -177.178     218.969
  C     -175.568    -179.370     220.363
  O     -176.189    -178.323     219.621
  C     -176.545    -179.920     221.413
  O     -177.751    -180.410     220.761
  C     -176.021    -181.113     222.196
  O     -175.106    -180.723     223.215
  C     -177.309    -181.703     222.763
  O     -177.721    -181.006     223.949
  C     -178.303    -181.448     221.602
  N     -178.601    -182.655     220.835
  C     -179.108    -183.731     221.558
  O     -179.251    -183.726     222.783
  N     -179.416    -184.850     220.822
  C     -179.207    -185.011     219.478
  O     -179.493    -186.045     218.878
  C     -178.593    -183.874     218.795
  C     -178.315    -182.764     219.488
  O     -174.356    -178.016     217.957
  O     -176.016    -176.095     218.238
  H     -177.746    -180.058     223.713
  H     -174.752    -177.997     217.074
  H     -179.810    -185.640     221.320
  H     -178.388    -183.971     217.735
  H     -177.855    -181.913     218.987
  H     -179.243    -181.037     221.995
  H     -177.204    -182.760     223.021
  H     -175.565    -181.846     221.508
  H     -176.835    -179.108     222.087
  H     -174.685    -178.978     220.884
  H     -175.252    -180.169     219.675
  P     -173.536    -180.953     222.883
  C     -173.365    -183.348     223.902
  O     -173.371    -182.536     222.748
  O     -172.884    -180.579     224.306
  O     -173.054    -180.142     221.731
  H     -173.449    -180.824     225.042
  H     -174.020    -182.953     224.684
  H     -172.333    -183.435     224.285
  H     -173.720    -184.361     223.625
  H     -173.826    -175.685     221.822
  H     -175.353    -176.532     221.765
  H     -175.148    -175.039     220.880

 3  4  5  6  7  8  9  10  11  12  13  23  28  29  30  31  32 0
 6-311+G(2d,p)
 ****
 33  34 0
 6-311+G(2d,p)
 ****
 1  2  14  15  16  17  18  19  20  21  22  24  25  26 0
 3-21G
 ****
 27  35  36  37  38  39  40  41  42  43  44  45 0
 3-21G
 ****


