%nproc=1
%NoSave
%Mem=1900MB
#P OB98/GEN NMR

erre ene a

0 1
  C     -516.062     166.206    1026.346
  O     -515.702     167.566    1026.345
  P     -516.660     168.585    1025.548
  C     -518.117     168.996    1027.672
  O     -518.075     168.593    1026.310
  C     -518.636     170.425    1027.782
  O     -519.917     170.558    1027.129
  C     -518.856     170.921    1029.210
  O     -517.614     171.230    1029.830
  C     -519.758     172.111    1028.944
  O     -518.975     173.238    1028.514
  C     -520.645     171.606    1027.811
  N     -525.672     172.503    1028.164
  C     -524.678     173.247    1027.678
  N     -523.357     172.955    1027.640
  C     -523.112     171.735    1028.159
  C     -524.051     170.867    1028.722
  C     -525.380     171.295    1028.712
  N     -526.428     170.527    1029.211
  N     -523.432     169.731    1029.177
  C     -522.172     169.885    1028.899
  N     -521.917     171.082    1028.273
  O     -516.980     167.791    1024.194
  O     -516.071     169.931    1025.284
  H     -518.509     173.582    1029.297
  H     -517.066     168.404    1023.436
  H     -524.950     174.222    1027.257
  H     -521.379     169.186    1029.122
  H     -520.861     172.377    1027.063
  H     -520.320     172.426    1029.845
  H     -519.385     170.156    1029.803
  H     -517.905     171.085    1027.255
  H     -517.115     168.948    1028.098
  H     -527.323     170.968    1029.292
  H     -526.189     169.693    1029.736
  H     -518.763     168.299    1028.233
  P     -517.660     171.641    1031.399
  C     -517.521     169.181    1032.099
  O     -518.296     170.362    1032.112
  O     -518.871     172.695    1031.416
  O     -516.366     172.136    1031.950
  H     -519.660     172.350    1030.935
  H     -518.037     168.405    1032.668
  H     -516.547     169.364    1032.551
  H     -517.379     168.830    1031.064
  H     -515.343     165.647    1026.908
  H     -516.088     165.843    1025.340
  H     -517.029     166.093    1026.791

 3  4  5  6  7  8  9  10  11  12  22  25  29  30  31  32 0
 6-311+G(2d,p)
 ****
 33  36  37 0
 6-311+G(2d,p)
 ****
 1  2  13  14  15  16  17  18  19  20  21  23  24  26 0
 3-21G
 ****
 27  28  34  35  38  39  40  41  42  43  44  45  46  47  48 0
 3-21G
 ****


