%nproc=1
%NoSave
%Mem=1900MB
#P OB98/GEN NMR

erre ene a

0 1
  C      225.834     304.685      26.718
  O      224.853     304.246      27.643
  P      225.195     304.403      29.204
  C      225.378     302.133      30.460
  O      226.009     303.086      29.609
  C      224.346     301.326      29.678
  O      224.960     300.711      28.532
  C      223.720     300.189      30.469
  O      222.742     300.682      31.362
  C      223.153     299.320      29.351
  O      221.841     299.758      28.971
  C      224.166     299.547      28.205
  N      225.003     298.384      27.959
  C      224.776     297.715      26.749
  O      223.896     298.110      25.980
  N      225.521     296.596      26.467
  C      226.409     296.183      27.317
  N      227.123     295.075      26.978
  C      226.666     296.849      28.607
  C      225.930     297.928      28.868
  O      223.773     304.196      29.908
  O      225.831     305.702      29.578
  H      221.924     300.723      28.803
  H      223.742     304.653      30.770
  H      227.417     296.463      29.280
  H      226.051     298.476      29.793
  H      223.639     299.787      27.273
  H      223.065     298.273      29.656
  H      224.489     299.633      31.018
  H      223.568     302.017      29.320
  H      226.919     294.637      26.089
  H      224.873     302.656      31.278
  H      227.852     294.687      27.562
  H      226.143     301.476      30.884
  P      222.217     299.697      32.511
  C      219.813     298.894      32.119
  O      221.174     298.727      31.776
  O      221.247     300.650      33.359
  O      223.246     299.039      33.367
  H      220.937     300.184      34.155
  H      219.203     298.290      31.440
  H      219.517     299.942      32.021
  H      219.642     298.552      33.143
  H      225.481     304.524      25.721
  H      226.739     304.134      26.869
  H      226.022     305.728      26.866

 3  4  5  6  7  8  9  10  11  12  13  21  23  27  28  29  30  32 0
 6-311+G(2d,p)
 ****
 34  35 0
 6-311+G(2d,p)
 ****
 1  2  14  15  16  17  18  19  20  22  24  25  26 0
 3-21G
 ****
 31  33  36  37  38  39  40  41  42  43  44  45  46 0
 3-21G
 ****


