%nproc=1
%NoSave
%Mem=1900MB
#P OB98/GEN NMR

erre ene a

0 1
  C      733.178     272.469     388.223
  O      732.546     272.933     389.391
  H      734.166     272.929     388.154
  H      732.590     272.762     387.347
  H      733.300     271.382     388.235
  P      731.312     272.099     389.985
  C      732.811     270.513     391.366
  O      731.758     271.476     391.397
  C      733.380     270.262     392.765
  O      734.063     271.448     393.233
  C      732.288     269.941     393.795
  O      731.935     268.569     393.864
  C      732.941     270.404     395.094
  O      733.725     269.358     395.689
  C      733.842     271.562     394.647
  N      731.706     274.598     398.168
  C      731.960     273.235     398.229
  N      731.549     272.611     399.356
  N      732.535     272.568     397.270
  C      732.786     273.304     396.162
  C      732.567     274.649     395.978
  C      731.999     275.406     397.080
  O      731.769     276.609     397.075
  N      732.915     275.051     394.711
  C      733.268     273.930     394.106
  N      733.281     272.863     394.973
  O      731.251     270.805     389.040
  O      729.992     272.812     389.985
  H      734.428     269.115     395.057
  H      730.330     270.499     388.962
  H      731.283     275.064     398.948
  H      733.562     273.846     393.068
  H      734.826     271.510     395.131
  H      732.182     270.686     395.830
  H      731.031     273.060     400.091
  H      731.402     270.551     393.618
  H      731.547     271.590     399.366
  H      734.127     269.460     392.707
  H      733.585     270.919     390.718
  H      732.457     269.583     390.923
  P      730.518     268.118     394.451
  C      729.052     267.923     392.279
  O      729.753     267.285     393.325
  O      729.700     269.487     394.512
  O      730.557     267.425     395.775
  H      729.713     269.860     395.423
  H      728.616     267.184     391.640
  H      729.729     268.529     391.714
  H      728.280     268.539     392.691

 6  7  8  9  10  11  12  13  14  15  26  29  33  34 0
 6-311+G(2d,p)
 ****
 36  38  39  40  41 0
 6-311+G(2d,p)
 ****
 1  2  3  4  5  16  17  18  19  20  21  22  23  24  25 0
 3-21G
 ****
 27  28  30  31  32  35  37  42  43  44  45  46  47 0
 3-21G
 ****
 48  49 0
 3-21G
 ****


