%nproc=1
%NoSave
%Mem=1900MB
#P OB98/GEN NMR

erre ene a

0 1
  C     -198.540    -178.514    -719.689
  O     -198.451    -179.924    -719.486
  P     -198.064    -180.811    -720.771
  C     -199.271    -181.427    -722.991
  O     -199.410    -181.068    -721.617
  C     -200.643    -181.610    -723.655
  O     -201.410    -182.670    -723.006
  C     -201.520    -180.349    -723.648
  O     -202.271    -180.347    -724.867
  C     -202.460    -180.608    -722.486
  O     -203.617    -179.778    -722.549
  C     -202.705    -182.104    -722.669
  N     -206.987    -183.400    -720.326
  C     -206.795    -182.659    -721.460
  N     -207.915    -182.237    -722.115
  N     -205.614    -182.356    -721.947
  C     -204.590    -182.877    -721.217
  C     -204.653    -183.648    -720.072
  C     -205.970    -183.944    -719.536
  O     -206.199    -184.596    -718.526
  N     -203.401    -184.008    -719.640
  C     -202.584    -183.414    -720.477
  N     -203.254    -182.745    -721.494
  O     -197.724    -182.244    -720.148
  O     -196.915    -180.250    -721.557
  H     -204.083    -179.977    -723.388
  H     -196.760    -182.359    -720.081
  H     -207.919    -183.600    -719.992
  H     -201.508    -183.426    -720.433
  H     -203.388    -182.318    -723.491
  H     -201.953    -180.398    -721.536
  H     -208.843    -182.475    -721.829
  H     -200.954    -179.411    -723.547
  H     -207.803    -181.721    -722.976
  H     -200.468    -181.932    -724.699
  H     -198.707    -182.355    -723.064
  H     -198.676    -180.653    -723.496
  P     -202.511    -178.943    -725.610
  C     -204.280    -177.060    -725.490
  O     -203.704    -178.203    -724.872
  O     -203.150    -179.371    -727.020
  O     -201.260    -178.133    -725.817
  H     -202.789    -178.806    -727.727
  H     -205.319    -176.955    -725.155
  H     -204.270    -177.144    -726.581
  H     -203.735    -176.168    -725.197
  H     -198.802    -178.037    -718.768
  H     -199.289    -178.306    -720.424
  H     -197.595    -178.142    -720.027

 3  4  5  6  7  8  9  10  11  12  23  26  30  31 0
 6-311+G(2d,p)
 ****
 33  35  36  37  38 0
 6-311+G(2d,p)
 ****
 1  2  13  14  15  16  17  18  19  20  21  22  24  25 0
 3-21G
 ****
 27  28  29  32  34  39  40  41  42  43  44  45  46  47  48  49 0
 3-21G
 ****


