%nproc=1
%NoSave
%Mem=1900MB
#P OB98/GEN NMR

erre ene a

0 1
  C      212.697    -498.864     219.788
  O      213.666    -499.880     219.988
  P      215.059    -499.555     220.701
  C      215.015    -501.073     222.842
  O      214.890    -499.790     222.269
  C      213.972    -501.218     223.960
  O      212.641    -501.100     223.419
  C      214.082    -502.574     224.655
  O      214.892    -502.479     225.814
  C      212.634    -502.912     224.952
  O      212.196    -502.237     226.148
  C      211.917    -502.326     223.716
  N      211.873    -503.139     222.485
  C      211.204    -504.360     222.491
  O      210.605    -504.809     223.464
  N      211.268    -505.078     221.322
  C      211.882    -504.676     220.171
  O      212.141    -505.414     219.229
  C      212.326    -503.280     220.149
  C      212.326    -502.595     221.291
  O      215.167    -497.964     220.573
  O      216.251    -500.245     220.123
  H      212.766    -502.542     226.875
  H      215.741    -497.716     219.824
  H      210.907    -506.026     221.362
  H      212.692    -502.871     219.214
  H      212.685    -501.570     221.305
  H      210.884    -502.048     223.955
  H      212.505    -503.975     225.142
  H      214.479    -503.325     223.957
  H      214.115    -500.409     224.685
  H      216.025    -501.209     223.242
  H      214.860    -501.842     222.078
  P      216.476    -502.665     225.689
  C      217.209    -501.024     227.518
  O      217.103    -501.254     226.127
  O      216.962    -503.206     224.386
  O      216.828    -503.645     226.907
  H      216.898    -504.566     226.582
  H      217.807    -500.122     227.678
  H      217.699    -501.870     228.011
  H      216.216    -500.870     227.943
  H      211.841    -499.279     219.298
  H      213.114    -498.088     219.181
  H      212.405    -498.458     220.734

 3  4  5  6  7  8  9  10  11  12  13  23  28  29  30  31  32 0
 6-311+G(2d,p)
 ****
 33  34 0
 6-311+G(2d,p)
 ****
 1  2  14  15  16  17  18  19  20  21  22  24  25  26  27 0
 3-21G
 ****
 35  36  37  38  39  40  41  42  43  44  45 0
 3-21G
 ****


