%nproc=1
%NoSave
%Mem=1900MB
#P OB98/GEN NMR

erre ene a

0 1
  C      245.694       0.003     102.600
  O      244.338      -0.141     103.055
  P      244.034      -1.073     104.329
  C      241.448      -1.470     104.322
  O      242.553      -0.756     104.856
  C      240.136      -0.790     104.726
  O      240.028       0.513     104.108
  C      238.883      -1.538     104.297
  O      238.621      -2.655     105.130
  C      237.828      -0.442     104.402
  O      237.364      -0.302     105.757
  C      238.621       0.805     103.966
  N      238.299       1.229     102.606
  C      237.367       2.255     102.482
  O      236.784       2.755     103.443
  N      237.098       2.667     101.206
  C      237.606       2.118     100.060
  O      237.312       2.520      98.943
  C      238.523       0.985     100.253
  C      238.817       0.595     101.495
  O      244.943      -0.392     105.464
  O      244.381      -2.517     104.174
  H      236.907       0.560     105.808
  H      245.201      -1.064     106.122
  H      236.448       3.429     101.095
  H      238.929       0.507      99.370
  H      239.493      -0.240     101.652
  H      238.418       1.639     104.648
  H      236.949      -0.649     103.784
  H      238.974      -1.849     103.250
  H      240.147      -0.648     105.815
  H      241.456      -2.491     104.710
  H      241.543      -1.508     103.232
  P      238.091      -3.986     104.404
  C      236.075      -4.504     105.988
  O      237.376      -4.839     105.557
  O      239.470      -4.747     104.119
  O      237.271      -3.704     103.189
  H      240.131      -4.580     104.813
  H      235.471      -4.105     105.169
  H      236.139      -3.761     106.787
  H      235.590      -5.403     106.378
  H      245.718       0.652     101.750
  H      246.083      -0.956     102.328
  H      246.291       0.420     103.384

 3  4  5  6  7  8  9  10  11  12  13  23  28  29  30  31  32 0
 6-311+G(2d,p)
 ****
 33  34 0
 6-311+G(2d,p)
 ****
 1  2  14  15  16  17  18  19  20  21  22  24  25  26 0
 3-21G
 ****
 27  35  36  37  38  39  40  41  42  43  44  45 0
 3-21G
 ****


