%nproc=1
%NoSave
%Mem=1900MB
#P OB98/GEN NMR

erre ene a

0 1
  C     -341.131    -392.531    -278.401
  O     -340.484    -393.469    -277.566
  H     -340.525    -392.387    -279.298
  H     -341.239    -391.570    -277.891
  H     -342.114    -392.906    -278.704
  P     -341.116    -393.773    -276.125
  C     -342.558    -395.656    -277.162
  O     -342.540    -394.465    -276.384
  C     -343.320    -396.772    -276.432
  O     -344.743    -396.473    -276.468
  C     -343.130    -398.167    -277.060
  O     -343.245    -399.127    -276.004
  C     -344.328    -398.242    -277.985
  O     -344.556    -399.553    -278.428
  C     -345.400    -397.591    -277.105
  N     -346.574    -397.177    -277.859
  C     -347.430    -398.202    -278.278
  O     -347.171    -399.375    -278.016
  N     -348.545    -397.871    -279.007
  C     -348.745    -396.636    -279.351
  N     -349.862    -396.377    -280.087
  C     -347.834    -395.533    -278.976
  C     -346.780    -395.872    -278.236
  O     -341.142    -392.625    -275.172
  O     -340.226    -394.978    -275.558
  H     -344.708    -400.161    -277.671
  H     -339.617    -394.643    -274.874
  H     -348.038    -394.524    -279.301
  H     -346.052    -395.135    -277.914
  H     -345.720    -398.279    -276.308
  H     -344.163    -397.633    -278.882
  H     -342.168    -398.275    -277.571
  H     -343.019    -396.770    -275.379
  H     -350.455    -397.165    -280.325
  H     -341.519    -395.958    -277.328
  H     -350.109    -395.461    -280.427
  H     -343.030    -395.466    -278.134
  P     -342.145    -400.269    -275.741
  C     -341.071    -399.212    -273.646
  O     -340.883    -399.623    -274.996
  O     -341.798    -401.068    -276.956
  O     -342.794    -401.219    -274.619
  H     -342.472    -402.129    -274.747
  H     -340.158    -398.801    -273.268
  H     -341.355    -400.056    -273.052
  H     -341.841    -398.471    -273.603

 6  7  8  9  10  11  12  13  14  15  16  26  30  31  32  33  35 0
 6-311+G(2d,p)
 ****
 37  38 0
 6-311+G(2d,p)
 ****
 1  2  3  4  5  17  18  19  20  21  22  23  24  25 0
 3-21G
 ****
 27  28  29  34  36  39  40  41  42  43  44  45  46 0
 3-21G
 ****


