%nproc=1
%NoSave
%Mem=1900MB
#P OB98/GEN NMR

erre ene a

0 1
  C      135.868      56.474     870.858
  O      136.465      56.332     869.588
  H      135.147      55.670     871.005
  H      135.348      57.435     870.927
  H      136.630      56.405     871.650
  P      137.555      57.443     869.174
  C      135.889      58.866     867.779
  O      136.726      58.801     868.926
  C      135.859      60.296     867.227
  O      135.605      61.242     868.281
  C      137.149      60.733     866.542
  O      137.206      60.266     865.194
  C      137.040      62.252     866.636
  O      136.182      62.776     865.604
  C      136.402      62.427     868.024
  N      137.183      64.611     872.514
  C      136.040      64.574     871.733
  N      134.974      65.270     872.186
  N      135.971      63.928     870.599
  C      137.123      63.309     870.256
  C      138.310      63.264     870.956
  C      138.378      63.956     872.227
  O      139.325      63.971     873.002
  N      139.257      62.523     870.286
  C      138.654      62.155     869.173
  N      137.367      62.625     869.093
  O      137.992      57.005     867.701
  O      138.725      57.558     870.089
  H      135.289      62.417     865.719
  H      138.922      57.269     867.550
  H      137.170      65.106     873.384
  H      139.103      61.551     868.390
  H      135.723      63.293     868.048
  H      138.008      62.731     866.524
  H      135.076      66.024     872.847
  H      138.028      60.386     867.118
  H      134.146      65.263     871.605
  H      135.008      60.348     866.520
  H      134.871      58.569     868.062
  H      136.268      58.175     867.015
  P      138.647      59.959     864.577
  C      138.672      62.363     863.593
  O      139.358      61.386     864.348
  O      138.321      59.468     863.087
  O      139.455      58.947     865.331
  H      139.091      58.997     862.705
  H      139.269      63.249     863.530
  H      137.741      62.593     864.069
  H      138.486      61.987     862.608

 6  7  8  9  10  11  12  13  14  15  26  29  33  34 0
 6-311+G(2d,p)
 ****
 36  38  39  40  41 0
 6-311+G(2d,p)
 ****
 1  2  3  4  5  16  17  18  19  20  21  22  23  24  25 0
 3-21G
 ****
 27  28  30  31  32  35  37  42  43  44  45  46  47 0
 3-21G
 ****
 48  49 0
 3-21G
 ****


