%nproc=1
%NoSave
%Mem=1900MB
#P OB98/GEN NMR

erre ene a

0 1
  C      -92.967     135.554     -68.723
  O      -93.771     136.714     -68.647
  H      -93.566     134.694     -68.411
  H      -92.110     135.642     -68.053
  H      -92.622     135.386     -69.748
  P      -93.175     138.103     -69.178
  C      -92.810     138.758     -66.711
  O      -92.238     138.683     -68.012
  C      -92.407     140.069     -66.042
  O      -91.007     140.038     -65.679
  C      -92.578     141.295     -66.933
  O      -93.940     141.660     -67.032
  C      -91.691     142.293     -66.206
  O      -92.362     142.844     -65.061
  C      -90.510     141.394     -65.761
  N      -89.360     141.480     -66.662
  C      -88.417     142.458     -66.360
  O      -88.519     143.220     -65.401
  N      -87.364     142.559     -67.232
  C      -87.221     141.857     -68.395
  O      -86.385     142.132     -69.250
  C      -88.206     140.790     -68.622
  C      -89.224     140.662     -67.767
  O      -94.172     139.069     -69.726
  O      -92.117     137.655     -70.296
  H      -92.513     137.774     -71.181
  H      -92.587     142.088     -64.483
  H      -86.699     143.297     -67.048
  H      -88.090     140.167     -69.500
  H      -89.978     139.902     -67.931
  H      -90.176     141.671     -64.753
  H      -91.401     143.133     -66.840
  H      -92.153     141.101     -67.925
  H      -92.991     140.175     -65.119
  H      -92.435     137.917     -66.118
  H      -93.898     138.680     -66.793
  P      -94.508     142.394     -68.337
  C      -94.446     144.699     -67.219
  O      -93.997     143.912     -68.314
  O      -95.975     142.237     -68.563
  O      -93.674     141.752     -69.545
  H      -94.295     141.415     -70.219
  H      -94.047     145.688     -67.304
  H      -94.114     144.258     -66.303
  H      -95.515     144.743     -67.226

 6  7  8  9  10  11  12  13  14  15  16  27  31  32  33  34  35 0
 6-311+G(2d,p)
 ****
 36  37 0
 6-311+G(2d,p)
 ****
 1  2  3  4  5  17  18  19  20  21  22  23  24  25 0
 3-21G
 ****
 26  28  29  30  38  39  40  41  42  43  44  45 0
 3-21G
 ****


