%nproc=1
%NoSave
%Mem=1900MB
#P OB98/GEN NMR

erre ene a

0 1
  C      -10.380      49.266     -47.293
  O      -11.631      48.770     -46.859
  H       -9.607      48.540     -47.028
  H      -10.155      50.213     -46.796
  H      -10.373      49.405     -48.378
  P      -12.960      49.581     -47.241
  C      -12.911      50.712     -44.925
  O      -12.973      50.903     -46.334
  C      -12.204      51.897     -44.271
  O      -10.852      52.012     -44.772
  C      -12.867      53.242     -44.550
  O      -14.038      53.396     -43.773
  C      -11.729      54.190     -44.203
  O      -11.618      54.367     -42.782
  C      -10.505      53.416     -44.748
  N      -10.086      53.878     -46.075
  C       -8.751      53.674     -46.403
  O       -7.943      53.142     -45.643
  N       -8.359      54.146     -47.628
  C       -9.134      54.865     -48.491
  O       -8.687      55.454     -49.470
  C      -10.554      54.985     -48.124
  C      -10.957      54.507     -46.944
  O      -14.225      48.792     -47.227
  O      -12.642      50.154     -48.703
  H      -13.089      49.599     -49.371
  H      -11.787      53.491     -42.381
  H       -7.380      54.044     -47.857
  H      -11.217      55.493     -48.815
  H      -11.992      54.612     -46.642
  H       -9.650      53.518     -44.067
  H      -11.866      55.180     -44.640
  H      -13.093      53.336     -45.618
  H      -12.149      51.707     -43.190
  H      -12.347      49.794     -44.722
  H      -13.927      50.600     -44.533
  P      -15.408      53.893     -44.433
  C      -14.590      56.321     -44.342
  O      -15.131      55.294     -45.161
  O      -16.589      53.896     -43.515
  O      -15.642      52.890     -45.660
  H      -16.538      52.503     -45.588
  H      -14.447      57.205     -44.927
  H      -13.650      56.001     -43.943
  H      -15.266      56.530     -43.539

 6  7  8  9  10  11  12  13  14  15  16  27  31  32  33  34  35 0
 6-311+G(2d,p)
 ****
 36  37 0
 6-311+G(2d,p)
 ****
 1  2  3  4  5  17  18  19  20  21  22  23  24  25 0
 3-21G
 ****
 26  28  29  30  38  39  40  41  42  43  44  45 0
 3-21G
 ****


