%nproc=1
%NoSave
%Mem=1900MB
#P OB98/GEN NMR

erre ene a

0 1
  C      916.988    -103.266     659.652
  O      917.291    -102.369     660.727
  P      918.112    -101.033     660.361
  C      917.350     -99.293     658.550
  O      917.032    -100.036     659.731
  C      916.121     -98.522     658.066
  O      915.091     -99.445     657.619
  C      915.464     -97.668     659.129
  O      916.219     -96.486     659.378
  C      914.097     -97.417     658.499
  O      914.173     -96.375     657.515
  C      913.826     -98.778     657.800
  N      912.880     -99.610     658.525
  C      912.125    -100.494     657.749
  O      912.233    -100.581     656.521
  N      911.242    -101.289     658.433
  C      911.013    -101.258     659.779
  O      910.204    -102.003     660.331
  C      911.781    -100.267     660.539
  C      912.671     -99.492     659.889
  O      918.981    -101.535     659.112
  O      918.900    -100.506     661.517
  H      918.505    -102.174     658.548
  H      914.293     -95.538     658.014
  H      910.705    -101.953     657.884
  H      911.607    -100.189     661.607
  H      913.253     -98.756     660.430
  H      913.428     -98.606     656.790
  H      913.346     -97.122     659.232
  H      915.350     -98.241     660.064
  H      916.427     -97.904     657.206
  H      917.693     -99.973     657.758
  H      918.179     -98.609     658.786
  P      916.928     -96.374     660.822
  C      919.051     -97.733     661.507
  O      918.447     -96.815     660.618
  O      916.258     -97.615     661.591
  O      916.723     -95.045     661.491
  H      916.221     -98.420     661.047
  H      919.929     -98.169     661.022
  H      918.368     -98.542     661.780
  H      919.374     -97.213     662.411
  H      916.444    -104.106     660.031
  H      917.898    -103.604     659.202
  H      916.396    -102.758     658.920

 3  4  5  6  7  8  9  10  11  12  13  24  28  29  30  31  32 0
 6-311+G(2d,p)
 ****
 33  34 0
 6-311+G(2d,p)
 ****
 1  2  14  15  16  17  18  19  20  21  22  23  25  26  27 0
 3-21G
 ****
 35  36  37  38  39  40  41  42  43  44  45 0
 3-21G
 ****


