%nproc=1
%NoSave
%Mem=1900MB
#P OB98/GEN NMR

erre ene a

0 1
  C      218.990    -731.179    -126.167
  O      218.108    -732.142    -125.631
  H      218.908    -731.193    -127.257
  H      220.027    -731.418    -125.897
  H      218.730    -730.183    -125.799
  P      218.108    -732.317    -124.039
  C      215.610    -731.705    -124.051
  O      216.896    -731.391    -123.536
  C      214.569    -731.754    -122.917
  O      214.827    -732.934    -122.118
  C      214.620    -730.538    -122.000
  O      213.297    -730.185    -121.608
  C      215.383    -731.042    -120.787
  O      215.064    -730.311    -119.599
  C      214.977    -732.510    -120.745
  N      215.675    -735.829    -116.929
  C      214.553    -735.275    -117.456
  N      214.472    -734.411    -118.495
  C      215.677    -734.165    -119.007
  C      216.899    -734.631    -118.580
  C      216.876    -735.513    -117.477
  N      218.000    -736.055    -116.916
  N      217.937    -734.115    -119.360
  C      217.329    -733.351    -120.247
  N      215.976    -733.336    -120.069
  O      219.422    -732.070    -123.364
  O      217.512    -733.792    -123.865
  H      215.436    -729.412    -119.674
  H      216.754    -733.939    -124.452
  H      213.619    -735.558    -116.994
  H      217.822    -732.784    -121.027
  H      214.016    -732.678    -120.232
  H      216.472    -730.945    -120.959
  H      215.109    -729.675    -122.459
  H      213.567    -731.882    -123.370
  H      215.629    -732.674    -124.575
  H      217.888    -736.683    -116.126
  H      218.907    -735.844    -117.325
  H      215.345    -730.926    -124.777
  P      212.938    -728.622    -121.470
  C      210.752    -728.797    -122.835
  O      212.033    -728.182    -122.726
  O      214.080    -727.715    -121.153
  O      211.871    -728.619    -120.264
  H      212.006    -727.839    -119.704
  H      210.251    -728.425    -123.704
  H      210.172    -728.571    -121.964
  H      210.871    -729.857    -122.919

 6  7  8  9  10  11  12  13  14  15  25  28  32  33  34  35 0
 6-311+G(2d,p)
 ****
 36  39  40 0
 6-311+G(2d,p)
 ****
 1  2  3  4  5  16  17  18  19  20  21  22  23  24 0
 3-21G
 ****
 26  27  29  30  31  37  38  41  42  43  44  45  46  47 0
 3-21G
 ****
 48 0
 3-21G
 ****


