%nproc=1
%NoSave
%Mem=1900MB
#P OB98/GEN NMR

erre ene a

0 1
  C      537.397    -233.851      48.706
  O      537.856    -234.864      49.604
  P      537.535    -236.424      49.418
  C      539.285    -236.890      51.268
  O      537.993    -237.196      50.750
  C      539.806    -238.028      52.150
  O      538.938    -238.214      53.300
  C      539.830    -239.402      51.495
  O      540.874    -239.526      50.543
  C      539.973    -240.320      52.710
  O      541.341    -240.446      53.110
  C      539.171    -239.548      53.783
  N      537.928    -240.214      54.142
  C      538.014    -241.282      55.034
  O      539.112    -241.685      55.422
  N      536.851    -241.879      55.458
  C      535.716    -241.512      54.947
  N      534.596    -242.132      55.426
  C      535.587    -240.482      53.903
  C      536.727    -239.873      53.555
  O      538.095    -237.015      48.161
  O      535.933    -236.532      49.445
  H      535.655    -237.325      48.945
  H      541.844    -240.695      52.304
  H      534.633    -240.228      53.486
  H      536.731    -239.091      52.799
  H      539.789    -239.431      54.686
  H      539.590    -241.327      52.507
  H      538.859    -239.588      51.005
  H      540.806    -237.759      52.511
  H      534.715    -242.823      56.146
  H      539.205    -235.983      51.874
  H      533.656    -241.900      55.113
  H      539.973    -236.691      50.433
  P      540.472    -239.371      48.995
  C      543.051    -239.593      48.675
  O      541.764    -239.769      48.120
  O      540.360    -237.777      48.794
  O      539.209    -240.056      48.604
  H      539.614    -237.578      48.201
  H      543.730    -240.309      48.210
  H      543.051    -239.739      49.751
  H      543.400    -238.581      48.440
  H      537.739    -232.895      49.042
  H      536.327    -233.857      48.678
  H      537.781    -234.043      47.726

 3  4  5  6  7  8  9  10  11  12  13  24  27  28  29  30  32 0
 6-311+G(2d,p)
 ****
 34  35 0
 6-311+G(2d,p)
 ****
 1  2  14  15  16  17  18  19  20  21  22  23  25  26 0
 3-21G
 ****
 31  33  36  37  38  39  40  41  42  43  44  45  46 0
 3-21G
 ****


