%nproc=1
%NoSave
%Mem=1900MB
#P OB98/GEN NMR

erre ene a

0 1
  C      667.329    -271.089     787.334
  O      667.317    -272.407     786.809
  H      666.813    -270.429     786.634
  H      668.357    -270.741     787.450
  H      666.804    -271.054     788.296
  P      667.918    -273.600     787.689
  C      666.036    -275.290     787.203
  O      666.664    -274.480     788.184
  C      664.846    -276.036     787.802
  O      665.339    -277.053     788.711
  C      663.881    -275.130     788.578
  O      662.551    -275.590     788.345
  C      664.258    -275.381     790.032
  O      663.170    -275.143     790.927
  C      664.704    -276.840     789.996
  N      664.995    -277.921     794.926
  C      663.888    -277.744     794.124
  N      662.676    -277.853     794.707
  N      663.968    -277.496     792.826
  C      665.234    -277.426     792.365
  C      666.415    -277.578     793.066
  C      666.315    -277.845     794.488
  O      667.261    -277.993     795.257
  N      667.513    -277.420     792.253
  C      666.994    -277.159     791.065
  N      665.625    -277.147     791.077
  O      668.854    -273.186     788.781
  O      668.633    -274.549     786.620
  H      662.923    -274.204     790.826
  H      669.597    -274.391     786.612
  H      664.873    -278.104     795.905
  H      667.567    -276.982     790.161
  H      663.858    -277.546     790.078
  H      665.090    -274.720     790.311
  H      662.553    -278.057     795.683
  H      663.972    -274.071     788.309
  H      661.856    -277.747     794.123
  H      664.326    -276.569     786.987
  H      666.774    -276.018     786.822
  H      665.710    -274.667     786.366
  P      661.364    -274.497     788.318
  C      659.741    -276.115     787.136
  O      660.402    -274.847     787.088
  O      661.793    -273.072     788.436
  O      660.467    -274.953     789.588
  H      660.028    -274.143     789.947
  H      659.131    -276.232     786.265
  H      659.127    -276.164     788.011
  H      660.471    -276.897     787.168

 6  7  8  9  10  11  12  13  14  15  26  29  33  34 0
 6-311+G(2d,p)
 ****
 36  38  39  40  41 0
 6-311+G(2d,p)
 ****
 1  2  3  4  5  16  17  18  19  20  21  22  23  24  25 0
 3-21G
 ****
 27  28  30  31  32  35  37  42  43  44  45  46  47 0
 3-21G
 ****
 48  49 0
 3-21G
 ****


