%nproc=1
%NoSave
%Mem=1900MB
#P OB98/GEN NMR

erre ene a

0 1
  C       99.525    -399.552    -355.186
  O      100.767    -398.903    -354.997
  H       99.187    -399.954    -354.224
  H       99.641    -400.381    -355.892
  H       98.779    -398.845    -355.556
  P      101.445    -398.244    -356.295
  C      102.624    -400.402    -357.122
  O      101.612    -399.433    -357.364
  C      103.128    -400.989    -358.443
  O      102.001    -401.561    -359.167
  C      103.798    -399.954    -359.367
  O      104.905    -400.579    -360.027
  C      102.713    -399.656    -360.391
  O      103.251    -399.152    -361.611
  C      102.053    -401.029    -360.508
  N       99.573    -400.519    -364.865
  C      100.931    -400.621    -364.608
  N      101.756    -400.569    -365.677
  N      101.428    -400.747    -363.406
  C      100.487    -400.813    -362.436
  C       99.120    -400.712    -362.555
  C       98.579    -400.548    -363.891
  O       97.386    -400.428    -364.176
  N       98.510    -400.782    -361.321
  C       99.505    -400.923    -360.467
  N      100.726    -400.947    -361.096
  O      102.951    -397.957    -355.826
  O      100.776    -397.018    -356.819
  H      102.502    -399.009    -362.228
  H      103.318    -397.181    -356.290
  H       99.238    -400.413    -365.809
  H       99.403    -401.005    -359.393
  H      102.633    -401.722    -361.132
  H      102.011    -398.914    -359.991
  H      101.438    -400.500    -366.634
  H      104.138    -399.056    -358.844
  H      102.754    -400.651    -365.511
  H      103.814    -401.820    -358.224
  H      102.207    -401.208    -356.501
  H      103.454    -399.930    -356.586
  P      106.309    -400.617    -359.250
  C      107.198    -398.530    -360.505
  O      106.949    -399.144    -359.252
  O      107.253    -401.436    -360.256
  O      106.239    -401.284    -357.913
  H      107.426    -402.329    -359.895
  H      107.622    -397.560    -360.349
  H      106.279    -398.435    -361.045
  H      107.881    -399.131    -361.067

 6  7  8  9  10  11  12  13  14  15  26  29  33  34 0
 6-311+G(2d,p)
 ****
 36  38  39  40  41 0
 6-311+G(2d,p)
 ****
 1  2  3  4  5  16  17  18  19  20  21  22  23  24  25 0
 3-21G
 ****
 27  28  30  31  32  35  37  42  43  44  45  46  47 0
 3-21G
 ****
 48  49 0
 3-21G
 ****


