%nproc=1
%NoSave
%Mem=1900MB
#P OB98/GEN NMR

erre ene a

0 1
  C     -398.960      26.123     158.173
  O     -398.509      26.834     157.041
  H     -398.155      26.072     158.904
  H     -399.243      25.105     157.885
  H     -399.818      26.627     158.630
  P     -399.587      27.128     155.885
  C     -399.756      25.083     154.274
  O     -400.204      25.700     155.471
  C     -400.216      23.618     154.240
  O     -401.664      23.583     154.329
  C     -399.813      22.885     152.955
  O     -399.480      21.526     153.281
  C     -401.079      22.923     152.118
  O     -401.146      21.890     151.134
  C     -402.150      22.804     153.211
  N     -403.465      23.284     152.766
  C     -404.421      22.325     152.462
  O     -404.277      21.111     152.597
  N     -405.604      22.818     151.956
  C     -405.896      24.130     151.718
  O     -406.960      24.504     151.252
  C     -404.836      25.095     152.058
  C     -403.685      24.634     152.557
  O     -398.672      27.509     154.624
  O     -400.603      28.177     156.195
  H     -398.512      28.469     154.592
  H     -401.989      22.006     150.639
  H     -406.325      22.133     151.725
  H     -405.030      26.146     151.877
  H     -402.878      25.322     152.805
  H     -402.233      21.761     153.554
  H     -401.161      23.893     151.602
  H     -398.962      23.361     152.441
  H     -399.826      23.106     155.129
  H     -398.671      25.121     154.230
  H     -400.164      25.625     153.415
  P     -397.918      21.159     153.401
  C     -397.616      21.364     150.811
  O     -397.207      21.785     152.103
  O     -397.941      19.582     153.129
  O     -397.330      21.565     154.725
  H     -398.594      19.317     152.454
  H     -397.042      21.879     150.070
  H     -398.654      21.586     150.676
  H     -397.461      20.310     150.714

 6  7  8  9  10  11  12  13  14  15  16  27  31  32  33  34  35 0
 6-311+G(2d,p)
 ****
 36  37 0
 6-311+G(2d,p)
 ****
 1  2  3  4  5  17  18  19  20  21  22  23  24  25 0
 3-21G
 ****
 26  28  29  30  38  39  40  41  42  43  44  45 0
 3-21G
 ****


