%nproc=1
%NoSave
%Mem=1900MB
#P OB98/GEN NMR

erre ene a

0 1
  C      -23.174      21.283       1.264
  O      -21.849      20.988       0.874
  H      -23.144      21.977       2.109
  H      -23.679      20.365       1.579
  H      -23.733      21.749       0.448
  P      -21.597      20.293      -0.546
  C      -19.312      21.369      -1.078
  O      -20.009      20.177      -0.744
  C      -17.806      21.215      -0.831
  O      -17.547      21.208       0.595
  C      -17.307      19.872      -1.382
  O      -15.938      19.929      -1.775
  C      -17.441      18.946      -0.183
  O      -16.609      17.792      -0.274
  C      -17.080      19.895       0.961
  N      -16.681      16.967       5.113
  C      -15.924      16.951       3.960
  N      -14.942      16.023       3.892
  N      -16.119      17.766       2.954
  C      -17.180      18.592       3.128
  C      -18.021      18.680       4.215
  C      -17.769      17.801       5.336
  O      -18.422      17.755       6.377
  N      -19.001      19.625       4.017
  C      -18.758      20.101       2.814
  N      -17.653      19.516       2.238
  O      -21.997      21.429      -1.603
  O      -22.358      19.024      -0.790
  H      -15.685      18.091      -0.181
  H      -22.259      21.030      -2.450
  H      -16.478      16.327       5.865
  H      -19.341      20.871       2.316
  H      -15.991      19.945       1.089
  H      -18.478      18.596      -0.137
  H      -14.869      15.269       4.557
  H      -17.905      19.528      -2.225
  H      -14.579      15.806       2.960
  H      -17.264      22.072      -1.249
  H      -19.716      22.169      -0.446
  H      -19.505      21.641      -2.119
  P      -15.618      20.301      -3.302
  C      -13.584      21.835      -2.675
  O      -14.075      20.718      -3.396
  O      -16.414      21.675      -3.523
  O      -16.033      19.250      -4.277
  H      -17.215      21.516      -4.061
  H      -12.538      21.951      -2.866
  H      -13.740      21.680      -1.628
  H      -14.103      22.717      -2.987

 6  7  8  9  10  11  12  13  14  15  26  29  33  34 0
 6-311+G(2d,p)
 ****
 36  38  39  40  41 0
 6-311+G(2d,p)
 ****
 1  2  3  4  5  16  17  18  19  20  21  22  23  24  25 0
 3-21G
 ****
 27  28  30  31  32  35  37  42  43  44  45  46  47 0
 3-21G
 ****
 48  49 0
 3-21G
 ****


