%nproc=1
%NoSave
%Mem=1900MB
#P OB98/GEN NMR

erre ene a

0 1
  C      492.813      10.438     -49.900
  O      492.258      11.259     -48.892
  H      492.996       9.445     -49.482
  H      493.762      10.858     -50.245
  H      492.118      10.344     -50.739
  P      491.899      12.763     -49.315
  C      489.549      11.910     -50.059
  O      490.714      12.650     -50.391
  C      488.359      12.380     -50.905
  O      488.590      11.994     -52.292
  C      487.017      11.756     -50.488
  O      485.974      12.691     -50.820
  C      486.935      10.554     -51.413
  O      485.633      10.017     -51.432
  C      487.462      11.189     -52.698
  N      485.851       7.606     -55.971
  C      485.179       8.445     -55.154
  N      485.677       9.380     -54.319
  C      487.018       9.423     -54.397
  C      487.839       8.637     -55.188
  C      487.204       7.688     -56.005
  N      487.886       6.825     -56.834
  N      489.169       8.968     -54.990
  C      489.144       9.936     -54.095
  N      487.869      10.237     -53.704
  O      493.164      13.213     -50.185
  O      491.633      13.702     -48.186
  H      485.556       9.313     -52.110
  H      493.798      13.696     -49.625
  H      484.095       8.348     -55.170
  H      490.014      10.443     -53.695
  H      486.723      11.857     -53.154
  H      487.599       9.753     -51.072
  H      486.962      11.512     -49.423
  H      488.316      13.475     -50.883
  H      489.333      12.062     -48.996
  H      489.729      10.847     -50.243
  H      487.357       6.163     -57.375
  H      488.894       6.862     -56.855
  P      485.532      13.787     -49.732
  C      486.623      15.990     -50.626
  O      486.650      14.936     -49.675
  O      485.788      13.011     -48.352
  O      484.115      14.253     -49.820
  H      485.181      13.348     -47.667
  H      487.436      16.660     -50.439
  H      485.698      16.521     -50.544
  H      486.715      15.584     -51.612

 6  7  8  9  10  11  12  13  14  15  25  28  32  33  34  35 0
 6-311+G(2d,p)
 ****
 36  37  40 0
 6-311+G(2d,p)
 ****
 1  2  3  4  5  16  17  18  19  20  21  22  23  24 0
 3-21G
 ****
 26  27  29  30  31  38  39 41  42  43  44  45  46  47  48 0
 3-21G
 ****


