%nproc=1
%NoSave
%Mem=1900MB
#P OB98/GEN NMR

erre ene a

0 1
  C       -1.476     434.870      64.627
  O       -1.037     435.438      65.849
  H       -0.910     435.321      63.811
  H       -2.539     435.082      64.481
  H       -1.303     433.789      64.628
  P       -1.618     434.784      67.198
  C        0.751     434.374      68.256
  O       -0.453     433.828      67.750
  C        1.831     434.404      67.174
  O        1.362     435.229      66.076
  C        3.169     434.976      67.652
  O        4.221     434.268      66.990
  C        3.134     436.413      67.153
  O        4.442     436.963      67.021
  C        2.356     436.258      65.838
  N        1.741     437.509      65.406
  C        2.586     438.446      64.809
  O        3.788     438.206      64.684
  N        2.070     439.653      64.409
  C        0.822     439.924      64.642
  N        0.366     441.143      64.244
  C       -0.102     438.980      65.309
  C        0.421     437.803      65.656
  O       -2.709     433.762      66.624
  O       -2.153     435.771      68.179
  H        4.359     437.882      66.679
  H       -2.394     433.251      65.858
  H       -1.131     439.256      65.494
  H       -0.188     437.045      66.136
  H        3.015     435.896      65.040
  H        2.574     437.038      67.859
  H        3.299     434.901      68.730
  H        1.955     433.389      66.778
  H        1.039     441.765      63.811
  H        1.109     433.782      69.109
  H       -0.562     441.483      64.423
  H        0.541     435.389      68.614
  P        4.083     432.697      66.748
  C        5.438     432.516      64.550
  O        4.165     432.388      65.177
  O        2.963     432.020      67.467
  O        5.495     432.135      67.279
  H        5.324     431.309      67.766
  H        5.348     432.282      63.510
  H        6.131     431.842      65.009
  H        5.791     433.520      64.661

 6  7  8  9  10  11  12  13  14  15  16  26  30  31  32  33  35 0
 6-311+G(2d,p)
 ****
 37  38 0
 6-311+G(2d,p)
 ****
 1  2  3  4  5  17  18  19  20  21  22  23  24  25 0
 3-21G
 ****
 27  28  29  34  36  39  40  41  42  43  44  45  46 0
 3-21G
 ****


