%nproc=1
%NoSave
%Mem=1900MB
#P OB98/GEN NMR

erre ene a

0 1
  C        7.186     -64.011     -95.343
  O        7.341     -64.892     -94.253
  P        7.730     -64.355     -92.796
  C       10.257     -64.415     -93.291
  O        9.143     -63.601     -92.943
  C       11.322     -64.358     -92.190
  O       11.852     -62.997     -92.124
  C       10.763     -64.716     -90.798
  O       11.493     -65.735     -90.114
  C       10.712     -63.367     -90.100
  O       10.684     -63.451     -88.688
  C       11.911     -62.647     -90.727
  N       11.871     -61.203     -90.513
  C       12.676     -60.690     -89.500
  O       13.416     -61.366     -88.791
  N       12.565     -59.347     -89.269
  C       11.668     -58.505     -89.854
  O       11.555     -57.332     -89.528
  C       10.816     -59.112     -90.889
  C       10.967     -60.405     -91.185
  O        7.688     -65.373     -91.707
  O        6.722     -63.129     -92.581
  H       11.329     -64.131     -88.415
  H        6.796     -62.418     -93.240
  H       13.142     -58.962     -88.538
  H       10.087     -58.471     -91.363
  H       10.354     -60.880     -91.943
  H       12.855     -63.028     -90.336
  H        9.785     -62.867     -90.407
  H        9.749     -65.124     -90.875
  H       12.134     -65.032     -92.475
  H       10.687     -64.043     -94.224
  H        9.925     -65.444     -93.469
  P       10.894     -67.148     -89.662
  C       10.359     -66.369     -87.240
  O        9.873     -66.895     -88.457
  O       11.905     -68.218     -89.419
  O        9.930     -67.550     -90.876
  H        9.880     -68.521     -90.944
  H        9.719     -66.722     -86.426
  H       10.311     -65.278     -87.275
  H       11.387     -66.686     -87.046
  H        6.927     -64.569     -96.219
  H        8.104     -63.488     -95.512
  H        6.409     -63.308     -95.126

 3  4  5  6  7  8  9  10  11  12  13  23  28  29  30  31  32 0
 6-311+G(2d,p)
 ****
 33  34 0
 6-311+G(2d,p)
 ****
 1  2  14  15  16  17  18  19  20  21  22  24  25  26  27 0
 3-21G
 ****
 35  36  37  38  39  40  41  42  43  44  45 0
 3-21G
 ****


