%nproc=1
%NoSave
%Mem=1900MB
#P OB98/GEN NMR

erre ene a

0 1
  C     -117.822      16.581    -521.542
  O     -116.506      16.809    -521.070
  H     -118.071      17.350    -522.274
  H     -118.532      16.626    -520.717
  H     -117.883      15.598    -522.027
  P     -115.940      15.760    -519.994
  C     -114.549      14.471    -521.785
  O     -114.535      15.232    -520.575
  C     -113.774      15.221    -522.859
  O     -114.449      16.452    -523.203
  C     -112.360      15.639    -522.436
  O     -111.435      14.549    -522.495
  C     -112.076      16.743    -523.447
  O     -111.603      16.214    -524.697
  C     -113.439      17.404    -523.627
  N     -112.173      22.346    -523.508
  C     -111.964      21.378    -524.436
  N     -112.350      20.089    -524.404
  C     -113.030      19.831    -523.264
  C     -113.319      20.717    -522.233
  C     -112.855      22.033    -522.391
  N     -113.048      23.020    -521.431
  N     -114.011      20.065    -521.218
  C     -114.137      18.821    -521.625
  N     -113.573      18.637    -522.877
  O     -116.916      14.506    -520.158
  O     -115.899      16.261    -518.587
  H     -110.676      15.925    -524.519
  H     -117.585      14.522    -519.443
  H     -111.416      21.698    -525.337
  H     -114.624      18.023    -521.090
  H     -113.650      17.636    -524.685
  H     -111.306      17.423    -523.066
  H     -112.391      16.074    -521.429
  H     -113.742      14.599    -523.778
  H     -115.591      14.330    -522.123
  H     -114.096      13.492    -521.594
  H     -112.623      23.904    -521.576
  H     -113.458      22.753    -520.544
  P     -110.180      14.621    -521.514
  C     -111.051      13.151    -519.538
  O     -110.177      13.267    -520.649
  O     -110.571      15.746    -520.436
  O     -108.873      14.932    -522.194
  H     -109.772      16.243    -520.177
  H     -110.920      12.193    -519.079
  H     -112.064      13.252    -519.869
  H     -110.829      13.920    -518.828

 6  7  8  9  10  11  12  13  14  15  25  28  32  33  34  35 0
 6-311+G(2d,p)
 ****
 36  37  40 0
 6-311+G(2d,p)
 ****
 1  2  3  4  5  16  17  18  19  20  21  22  23  24 0
 3-21G
 ****
 26  27  29  30  31  38  39 41  42  43  44  45  46  47  48 0
 3-21G
 ****


