%nproc=1
%NoSave
%Mem=1900MB
#P OB98/GEN NMR

erre ene a

0 1
  C      -94.116    -423.881    -194.677
  O      -93.546    -422.958    -193.762
  P      -92.988    -423.432    -192.330
  C      -94.066    -424.542    -190.253
  O      -94.237    -424.124    -191.598
  C      -95.334    -425.230    -189.742
  O      -96.347    -424.215    -189.510
  C      -95.925    -426.264    -190.713
  O      -96.489    -427.312    -189.922
  C      -97.019    -425.480    -191.417
  O      -98.013    -426.320    -191.987
  C      -97.514    -424.583    -190.273
  N      -98.225    -423.405    -190.753
  C      -99.616    -423.486    -190.869
  O     -100.212    -424.527    -190.596
  N     -100.301    -422.378    -191.293
  C      -99.655    -421.308    -191.651
  N     -100.388    -420.218    -192.011
  C      -98.184    -421.223    -191.650
  C      -97.541    -422.283    -191.171
  O      -92.311    -422.368    -191.535
  O      -92.061    -424.693    -192.666
  H      -98.426    -426.834    -191.270
  H      -91.140    -424.437    -192.912
  H      -97.689    -420.322    -191.986
  H      -96.465    -422.301    -191.109
  H      -98.163    -425.158    -189.600
  H      -96.579    -424.882    -192.225
  H      -95.178    -426.683    -191.393
  H      -95.105    -425.696    -188.775
  H     -101.386    -420.263    -191.832
  H      -93.872    -423.658    -189.639
  H      -99.984    -419.286    -191.983
  H      -93.199    -425.208    -190.181
  P      -96.447    -428.812    -190.501
  C      -98.092    -430.378    -191.757
  O      -97.803    -429.068    -191.310
  O      -96.680    -429.680    -189.169
  O      -95.175    -429.230    -191.162
  H      -96.284    -430.564    -189.298
  H      -99.052    -430.366    -192.276
  H      -98.163    -431.071    -190.910
  H      -97.319    -430.722    -192.454
  H      -94.422    -423.363    -195.562
  H      -94.966    -424.351    -194.227
  H      -93.390    -424.625    -194.932

 3  4  5  6  7  8  9  10  11  12  13  23  27  28  29  30  32 0
 6-311+G(2d,p)
 ****
 34  35 0
 6-311+G(2d,p)
 ****
 1  2  14  15  16  17  18  19  20  21  22  24  25  26 0
 3-21G
 ****
 31  33  36  37  38  39  40  41  42  43  44  45  46 0
 3-21G
 ****


