%nproc=1
%NoSave
%Mem=1900MB
#P OB98/GEN NMR

erre ene a

0 1
  C      899.923     384.275     764.657
  O      898.940     384.820     765.515
  P      898.969     384.557     767.085
  C      900.238     386.728     767.862
  O      900.226     385.322     767.703
  C      900.104     387.061     769.359
  O      901.158     386.421     770.104
  C      900.183     388.561     769.609
  O      898.885     389.132     769.666
  C      900.936     388.636     770.931
  O      900.044     388.417     772.035
  C      901.928     387.455     770.799
  N      903.184     387.669     770.037
  C      904.047     388.691     770.427
  O      903.852     389.420     771.382
  N      905.155     388.860     769.617
  C      905.481     388.100     768.537
  O      906.322     388.407     767.709
  C      904.686     386.874     768.358
  C      903.580     386.745     769.080
  O      899.418     383.018     767.179
  O      897.695     384.825     767.824
  H      900.575     388.452     772.845
  H      898.626     382.446     767.324
  H      905.719     389.692     769.815
  H      904.995     386.167     767.597
  H      902.942     385.874     768.941
  H      902.207     387.055     771.779
  H      901.374     389.630     771.081
  H      900.801     389.050     768.834
  H      899.150     386.672     769.729
  H      899.399     387.162     767.303
  H      901.159     387.154     767.459
  P      898.629     390.587     769.035
  C      896.486     389.657     767.978
  O      897.714     390.328     767.738
  O      899.844     391.400     768.813
  O      897.642     391.267     770.103
  H      898.161     391.839     770.707
  H      895.891     389.708     767.058
  H      895.948     390.119     768.792
  H      896.700     388.605     768.210
  H      899.720     384.571     763.649
  H      899.904     383.207     764.726
  H      900.888     384.634     764.947

 3  4  5  6  7  8  9  10  11  12  13  23  28  29  30  31  32 0
 6-311+G(2d,p)
 ****
 33  34 0
 6-311+G(2d,p)
 ****
 1  2  14  15  16  17  18  19  20  21  22  24  25  26  27 0
 3-21G
 ****
 35  36  37  38  39  40  41  42  43  44  45 0
 3-21G
 ****


