%nproc=1
%NoSave
%Mem=1900MB
#P OB98/GEN NMR

erre ene a

0 1
  C       51.779     555.025      57.802
  O       52.681     555.223      58.872
  P       54.258     555.207      58.614
  C       54.841     553.720      60.643
  O       54.994     554.999      60.030
  C       55.819     553.561      61.808
  O       57.183     553.427      61.332
  C       55.835     554.746      62.760
  O       54.676     554.806      63.568
  C       57.144     554.495      63.504
  O       56.955     553.508      64.545
  C       58.036     553.916      62.382
  N       59.000     554.891      61.897
  C       60.351     554.536      62.024
  O       60.673     553.502      62.594
  N       61.302     555.378      61.494
  C       60.940     556.524      60.999
  N       61.911     557.298      60.429
  C       59.546     557.000      60.996
  C       58.626     556.137      61.425
  O       54.790     556.336      57.793
  O       54.512     553.799      57.877
  H       55.048     553.952      57.084
  H       56.748     552.656      64.095
  H       59.292     558.001      60.621
  H       57.569     556.383      61.442
  H       58.577     553.036      62.748
  H       57.536     555.398      63.981
  H       55.931     555.679      62.181
  H       55.549     552.645      62.346
  H       62.859     556.942      60.449
  H       55.041     552.943      59.888
  H       61.707     558.023      59.755
  H       53.808     553.614      60.990
  P       53.501     555.803      63.096
  C       52.860     556.163      65.579
  O       52.422     555.854      64.263
  O       52.780     554.978      61.927
  O       53.972     557.142      62.607
  H       52.476     555.591      61.217
  H       51.987     556.507      66.155
  H       53.604     556.974      65.561
  H       53.274     555.279      66.051
  H       50.775     555.070      58.169
  H       51.955     554.067      57.360
  H       51.924     555.789      57.067

 3  4  5  6  7  8  9  10  11  12  13  24  27  28  29  30  32 0
 6-311+G(2d,p)
 ****
 34  35 0
 6-311+G(2d,p)
 ****
 1  2  14  15  16  17  18  19  20  21  22  23  25  26 0
 3-21G
 ****
 31  33  36  37  38  39  40  41  42  43  44  45  46 0
 3-21G
 ****


