%nproc=1
%NoSave
%Mem=1900MB
#P OB98/GEN NMR

erre ene a

0 1
  C      191.405     711.192    1294.706
  O      192.419     711.187    1295.697
  H      190.461     710.914    1295.173
  H      191.633     710.472    1293.915
  H      191.314     712.194    1294.277
  P      193.907     711.527    1295.203
  C      194.002     713.513    1296.852
  O      194.581     712.273    1296.454
  C      194.437     713.889    1298.277
  O      193.713     713.065    1299.227
  C      195.942     713.664    1298.516
  O      196.443     714.724    1299.349
  C      195.995     712.354    1299.292
  O      197.158     712.237    1300.100
  C      194.672     712.403    1300.069
  N      194.761     708.792    1303.684
  C      195.204     710.078    1303.676
  N      195.124     710.978    1302.675
  C      194.475     710.450    1301.609
  C      193.987     709.161    1301.480
  C      194.158     708.315    1302.580
  N      193.733     706.998    1302.596
  N      193.419     708.990    1300.216
  C      193.571     710.158    1299.614
  N      194.215     711.071    1300.413
  O      194.009     712.264    1293.902
  O      194.609     710.087    1295.241
  H      197.176     713.018    1300.703
  H      194.368     709.603    1296.054
  H      195.682     710.422    1304.594
  H      193.238     710.386    1298.598
  H      194.762     712.961    1301.013
  H      195.983     711.511    1298.567
  H      196.519     713.617    1297.582
  H      194.152     714.926    1298.470
  H      192.900     713.436    1296.818
  H      193.884     706.463    1303.433
  H      193.261     706.626    1301.791
  H      194.321     714.280    1296.138
  P      198.042     714.934    1299.446
  C      198.215     717.072    1297.988
  O      198.353     716.505    1299.294
  O      198.864     714.021    1298.583
  O      198.324     714.678    1301.003
  H      199.182     714.200    1301.083
  H      198.449     718.115    1298.026
  H      197.208     716.944    1297.648
  H      198.884     716.580    1297.313

 6  7  8  9  10  11  12  13  14  15  25  28  32  33  34  35 0
 6-311+G(2d,p)
 ****
 36  39  40 0
 6-311+G(2d,p)
 ****
 1  2  3  4  5  16  17  18  19  20  21  22  23  24 0
 3-21G
 ****
 26  27  29  30  31  37  38  41  42  43  44  45  46  47 0
 3-21G
 ****
 48 0
 3-21G
 ****


