%nproc=1
%NoSave
%Mem=1900MB
#P OB98/GEN NMR

erre ene a

0 1
  C      388.550    -474.476    -133.860
  O      387.185    -474.348    -133.512
  H      389.047    -473.521    -133.679
  H      388.652    -474.730    -134.920
  H      389.030    -475.243    -133.245
  P      386.219    -475.608    -133.727
  C      385.713    -476.055    -131.234
  O      386.369    -476.514    -132.409
  C      385.505    -477.216    -130.258
  O      384.569    -478.167    -130.808
  C      386.773    -477.999    -129.933
  O      387.529    -477.330    -128.937
  C      386.173    -479.303    -129.433
  O      385.679    -479.121    -128.088
  C      384.988    -479.499    -130.401
  N      384.470    -483.984    -132.717
  C      384.130    -483.607    -131.431
  N      383.607    -484.572    -130.643
  N      384.301    -482.399    -130.963
  C      384.900    -481.561    -131.839
  C      385.296    -481.823    -133.127
  C      385.042    -483.145    -133.663
  O      385.307    -483.509    -134.804
  N      385.953    -480.753    -133.680
  C      385.905    -479.826    -132.743
  N      385.283    -480.269    -131.597
  O      386.401    -476.365    -135.008
  O      384.746    -475.004    -133.587
  H      385.532    -480.011    -127.719
  H      384.390    -474.739    -134.456
  H      384.322    -484.933    -133.023
  H      386.297    -478.819    -132.836
  H      384.133    -479.982    -129.916
  H      386.892    -480.118    -129.407
  H      383.592    -485.546    -130.898
  H      387.362    -478.204    -130.835
  H      383.408    -484.324    -129.681
  H      385.047    -476.806    -129.346
  H      384.750    -475.630    -131.536
  H      386.306    -475.273    -130.748
  P      389.136    -477.257    -129.013
  C      389.470    -474.785    -129.697
  O      389.455    -476.138    -130.116
  O      389.812    -478.562    -129.235
  O      389.560    -476.522    -127.659
  H      389.644    -477.144    -126.895
  H      389.695    -474.155    -130.532
  H      390.216    -474.654    -128.941
  H      388.511    -474.523    -129.301

 6  7  8  9  10  11  12  13  14  15  26  29  33  34 0
 6-311+G(2d,p)
 ****
 36  38  39  40  41 0
 6-311+G(2d,p)
 ****
 1  2  3  4  5  16  17  18  19  20  21  22  23  24  25 0
 3-21G
 ****
 27  28  30  31  32  35  37  42  43  44  45  46  47 0
 3-21G
 ****
 48  49 0
 3-21G
 ****


