%nproc=1
%NoSave
%Mem=1900MB
#P OB98/GEN NMR

erre ene a

0 1
  C      -84.699      45.606     366.909
  O      -83.527      44.897     366.502
  P      -83.416      44.013     365.179
  C      -82.670      41.685     366.134
  O      -82.325      42.867     365.431
  C      -81.465      40.751     366.383
  O      -80.636      41.302     367.439
  C      -81.936      39.384     366.872
  O      -82.357      38.397     365.936
  C      -80.836      38.910     367.812
  O      -79.871      38.082     367.169
  C      -80.190      40.216     368.285
  N      -78.709      39.822     373.169
  C      -78.131      39.277     372.034
  N      -77.061      38.491     372.215
  N      -78.591      39.484     370.822
  C      -79.722      40.221     370.787
  C      -80.404      40.789     371.839
  C      -79.856      40.615     373.174
  O      -80.317      41.082     374.205
  N      -81.521      41.457     371.422
  C      -81.547      41.261     370.109
  N      -80.467      40.517     369.676
  O      -83.321      44.772     363.897
  O      -84.810      43.199     365.157
  H      -79.251      37.753     367.842
  H      -85.055      43.078     364.214
  H      -78.306      39.658     374.076
  H      -82.309      41.637     369.447
  H      -79.097      40.179     368.186
  H      -81.262      38.310     368.630
  H      -76.738      38.199     373.124
  H      -82.812      39.559     367.505
  H      -76.769      37.920     371.423
  H      -80.827      40.700     365.488
  H      -83.428      41.172     365.544
  H      -83.132      41.942     367.094
  P      -83.851      37.855     365.750
  C      -83.468      35.331     365.513
  O      -83.790      36.538     364.840
  O      -84.532      38.926     364.770
  O      -84.640      37.717     367.014
  H      -85.506      38.848     364.795
  H      -83.150      34.585     364.764
  H      -84.342      34.957     366.042
  H      -82.650      35.486     366.227
  H      -84.505      46.117     367.829
  H      -85.504      44.915     367.047
  H      -84.965      46.317     366.155

 3  4  5  6  7  8  9  10  11  12  23  26  30  31 0
 6-311+G(2d,p)
 ****
 33  35  36  37  38 0
 6-311+G(2d,p)
 ****
 1  2  13  14  15  16  17  18  19  20  21  22  24  25 0
 3-21G
 ****
 27  28  29  32  34  39  40  41  42  43  44  45  46  47  48  49 0
 3-21G
 ****


