%nproc=1
%NoSave
%Mem=1900MB
#P OB98/GEN NMR

erre ene a

0 1
  C     -311.297    -175.049      61.112
  O     -310.457    -176.082      61.602
  P     -308.989    -175.687      62.112
  C     -309.446    -176.018      64.651
  O     -309.123    -175.110      63.608
  C     -308.353    -176.027      65.723
  O     -308.403    -174.785      66.478
  C     -308.487    -177.177      66.727
  O     -307.182    -177.599      67.143
  C     -309.157    -176.529      67.919
  O     -308.896    -177.250      69.125
  C     -308.534    -175.133      67.876
  N     -308.321    -170.995      70.771
  C     -307.334    -171.579      70.003
  N     -306.101    -171.035      70.090
  N     -307.536    -172.604      69.216
  C     -308.816    -173.048      69.234
  C     -309.887    -172.541      69.941
  C     -309.647    -171.418      70.818
  O     -310.469    -170.867      71.546
  N     -311.038    -173.237      69.678
  C     -310.666    -174.190      68.843
  N     -309.320    -174.138      68.574
  O     -308.641    -174.388      61.236
  O     -307.957    -176.748      61.924
  H     -307.983    -177.033      69.393
  H     -308.000    -174.620      60.540
  H     -308.112    -170.214      71.370
  H     -311.311    -174.948      68.430
  H     -307.524    -175.131      68.305
  H     -310.242    -176.489      67.770
  H     -305.864    -170.289      70.728
  H     -309.049    -178.042      66.353
  H     -305.350    -171.469      69.572
  H     -307.376    -176.057      65.228
  H     -309.540    -177.021      64.228
  H     -310.408    -175.742      65.095
  P     -307.049    -179.136      67.593
  C     -305.554    -180.139      65.714
  O     -306.855    -179.973      66.246
  O     -308.533    -179.508      68.066
  O     -306.037    -179.374      68.665
  H     -308.513    -180.240      68.711
  H     -305.298    -181.202      65.728
  H     -304.802    -179.583      66.283
  H     -305.548    -179.780      64.679
  H     -312.236    -175.465      60.812
  H     -310.830    -174.578      60.272
  H     -311.458    -174.325      61.883

 3  4  5  6  7  8  9  10  11  12  23  26  30  31 0
 6-311+G(2d,p)
 ****
 33  35  36  37  38 0
 6-311+G(2d,p)
 ****
 1  2  13  14  15  16  17  18  19  20  21  22  24  25 0
 3-21G
 ****
 27  28  29  32  34  39  40  41  42  43  44  45  46  47  48  49 0
 3-21G
 ****


