%nproc=1
%NoSave
%Mem=1900MB
#P OB98/GEN NMR

erre ene a

0 1
  C     -250.609     263.298    -270.341
  O     -250.363     262.146    -271.127
  P     -248.925     261.775    -271.713
  C     -249.406     259.242    -272.032
  O     -249.081     260.477    -272.653
  C     -250.061     258.237    -273.004
  O     -251.452     258.576    -273.183
  C     -249.404     258.352    -274.391
  O     -248.198     257.664    -274.667
  C     -250.541     258.092    -275.384
  O     -250.548     256.734    -275.855
  C     -251.798     258.374    -274.557
  N     -256.353     260.635    -274.748
  C     -255.919     259.608    -273.923
  N     -256.887     258.994    -273.194
  N     -254.669     259.218    -273.841
  C     -253.849     259.869    -274.699
  C     -254.153     260.906    -275.549
  C     -255.526     261.356    -275.600
  O     -255.963     262.204    -276.378
  N     -253.070     261.274    -276.332
  C     -252.120     260.421    -275.974
  N     -252.560     259.533    -275.014
  O     -247.771     261.834    -270.755
  O     -248.704     262.954    -272.793
  H     -250.828     256.168    -275.114
  H     -247.749     263.172    -272.808
  H     -257.339     260.843    -274.829
  H     -251.137     260.397    -276.397
  H     -252.487     257.511    -274.586
  H     -250.435     258.733    -276.270
  H     -257.862     259.169    -273.342
  H     -249.148     259.409    -274.530
  H     -256.631     258.136    -272.714
  H     -250.045     257.227    -272.594
  H     -250.076     259.458    -271.200
  H     -248.505     258.794    -271.611
  P     -247.579     257.381    -276.111
  C     -245.137     257.422    -275.348
  O     -246.177     256.642    -275.925
  O     -247.156     258.837    -276.643
  O     -248.509     256.733    -277.093
  H     -247.095     258.824    -277.632
  H     -244.174     256.942    -275.539
  H     -245.292     257.475    -274.268
  H     -245.125     258.428    -275.773
  H     -251.643     263.329    -270.068
  H     -250.362     264.174    -270.904
  H     -250.008     263.262    -269.457

 3  4  5  6  7  8  9  10  11  12  23  26  30  31 0
 6-311+G(2d,p)
 ****
 33  35  36  37  38 0
 6-311+G(2d,p)
 ****
 1  2  13  14  15  16  17  18  19  20  21  22  24  25 0
 3-21G
 ****
 27  28  29  32  34  39  40  41  42  43  44  45  46  47  48  49 0
 3-21G
 ****


