%nproc=1
%NoSave
%Mem=1900MB
#P OB98/GEN NMR

erre ene a

0 1
  C      102.514     266.976      22.769
  O      103.614     267.851      22.630
  H      102.079     267.117      23.763
  H      102.840     265.937      22.676
  H      101.747     267.193      22.019
  P      104.354     267.943      21.211
  C      102.706     269.659      20.220
  O      103.239     268.343      20.131
  C      102.378     270.182      18.825
  O      101.779     271.495      18.910
  C      103.596     270.339      17.923
  O      104.036     269.083      17.447
  C      103.037     271.277      16.863
  O      102.236     270.561      15.911
  C      102.154     272.218      17.716
  N      102.823     273.479      18.048
  C      102.578     274.546      17.192
  O      101.853     274.465      16.204
  N      103.241     275.709      17.488
  C      104.167     275.870      18.477
  O      104.894     276.855      18.568
  C      104.326     274.732      19.393
  C      103.668     273.599      19.133
  O      105.199     266.770      20.843
  O      105.230     269.281      21.333
  H      106.158     269.043      21.520
  H      101.802     271.234      15.353
  H      103.107     276.477      16.846
  H      105.005     274.842      20.231
  H      103.794     272.738      19.780
  H      101.224     272.457      17.184
  H      103.824     271.786      16.302
  H      104.400     270.855      18.462
  H      101.642     269.506      18.370
  H      103.458     270.307      20.686
  H      101.812     269.641      20.851
  P      105.273     268.968      16.439
  C      106.789     269.777      18.343
  O      106.441     269.928      16.976
  O      104.938     269.147      14.997
  O      105.865     267.503      16.709
  H      105.927     267.022      15.859
  H      107.573     270.462      18.589
  H      107.123     268.776      18.517
  H      105.934     269.979      18.953

 6  7  8  9  10  11  12  13  14  15  16  27  31  32  33  34  35 0
 6-311+G(2d,p)
 ****
 36  37 0
 6-311+G(2d,p)
 ****
 1  2  3  4  5  17  18  19  20  21  22  23  24  25 0
 3-21G
 ****
 26  28  29  30  38  39  40  41  42  43  44  45 0
 3-21G
 ****


