%nproc=1
%NoSave
%Mem=1900MB
#P OB98/GEN NMR

erre ene a

0 1
  C       12.283      -1.414     -90.850
  O       12.000      -2.413     -89.886
  P       11.959      -1.963     -88.344
  C       14.399      -2.801     -88.039
  O       13.483      -1.722     -87.902
  C       15.558      -2.677     -87.049
  O       16.365      -1.531     -87.413
  C       15.120      -2.506     -85.593
  O       16.044      -3.218     -84.771
  C       15.287      -1.017     -85.346
  O       15.470      -0.729     -83.961
  C       16.498      -0.700     -86.240
  N       16.565       0.714     -86.593
  C       17.699       1.416     -86.170
  O       18.543       0.859     -85.467
  N       17.824       2.740     -86.513
  C       16.850       3.338     -87.127
  N       17.023       4.649     -87.445
  C       15.585       2.665     -87.479
  C       15.521       1.363     -87.205
  O       11.567      -3.317     -87.588
  O       11.010      -0.850     -88.044
  H       15.349       0.237     -83.833
  H       11.036      -3.128     -86.789
  H       14.790       3.220     -87.957
  H       14.641       0.783     -87.450
  H       17.432      -0.979     -85.738
  H       14.399      -0.479     -85.698
  H       14.106      -2.869     -85.409
  H       16.192      -3.566     -87.152
  H       17.893       5.092     -87.179
  H       14.812      -2.790     -89.052
  H       16.319       5.197     -87.922
  H       13.869      -3.748     -87.898
  P       15.472      -4.413     -83.867
  C       15.073      -2.680     -82.015
  O       14.500      -3.703     -82.807
  O       16.744      -4.761     -82.953
  O       14.951      -5.631     -84.552
  H       16.543      -5.530     -82.390
  H       14.279      -2.194     -81.444
  H       15.561      -1.933     -82.646
  H       15.796      -3.111     -81.316
  H       12.279      -1.850     -91.827
  H       13.246      -0.990     -90.653
  H       11.538      -0.647     -90.798

 3  4  5  6  7  8  9  10  11  12  13  21  23  27  28  29  30  32 0
 6-311+G(2d,p)
 ****
 34  35 0
 6-311+G(2d,p)
 ****
 1  2  14  15  16  17  18  19  20  22  24  25  26 0
 3-21G
 ****
 31  33  36  37  38  39  40  41  42  43  44  45  46 0
 3-21G
 ****


