%nproc=1
%NoSave
%Mem=1900MB
#P OB98/GEN NMR

erre ene a

0 1
  C      383.520     230.985     174.097
  O      383.044     231.799     173.052
  H      383.156     231.389     175.045
  H      384.615     230.997     174.102
  H      383.167     229.955     173.997
  P      383.023     231.208     171.561
  C      380.669     230.151     171.487
  O      381.505     231.216     171.036
  C      379.196     230.421     171.156
  O      378.721     231.542     171.940
  C      378.981     230.786     169.683
  O      378.804     229.668     168.826
  C      377.709     231.628     169.753
  O      376.533     230.813     169.664
  C      377.798     232.291     171.135
  N      376.550     237.096     169.893
  C      375.866     235.916     169.623
  N      374.735     236.048     168.893
  N      376.275     234.747     170.010
  C      377.478     234.760     170.635
  C      378.251     235.854     170.945
  C      377.755     237.168     170.580
  O      378.315     238.231     170.809
  N      379.428     235.488     171.551
  C      379.400     234.165     171.533
  N      378.202     233.685     171.059
  O      383.306     229.643     171.781
  O      384.033     231.796     170.622
  H      376.492     230.252     170.465
  H      383.786     229.287     171.012
  H      376.173     237.973     169.591
  H      380.193     233.517     171.887
  H      376.830     232.269     171.650
  H      377.668     232.335     168.921
  H      374.419     236.917     168.496
  H      379.792     231.416     169.321
  H      374.310     235.204     168.514
  H      378.598     229.547     171.450
  H      380.803     230.086     172.564
  H      380.991     229.208     171.048
  P      379.483     229.632     167.377
  C      381.561     228.241     168.180
  O      380.455     228.370     167.311
  O      380.486     230.871     167.422
  O      378.540     229.716     166.218
  H      380.093     231.657     166.977
  H      382.076     227.327     167.968
  H      381.219     228.231     169.194
  H      382.226     229.067     168.036

 6  7  8  9  10  11  12  13  14  15  26  29  33  34 0
 6-311+G(2d,p)
 ****
 36  38  39  40  41 0
 6-311+G(2d,p)
 ****
 1  2  3  4  5  16  17  18  19  20  21  22  23  24  25 0
 3-21G
 ****
 27  28  30  31  32  35  37  42  43  44  45  46  47 0
 3-21G
 ****
 48  49 0
 3-21G
 ****


