%nproc=1
%NoSave
%Mem=1900MB
#P OB98/GEN NMR

erre ene a

0 1
  C     1913.354    -166.802     245.528
  O     1912.025    -166.537     245.100
  P     1911.760    -166.546     243.511
  C     1909.737    -168.206     243.327
  O     1911.139    -167.996     243.197
  C     1909.478    -169.221     244.443
  O     1909.967    -168.707     245.710
  C     1908.013    -169.523     244.669
  O     1907.482    -170.366     243.673
  C     1908.037    -170.145     246.070
  O     1908.430    -171.531     245.981
  C     1909.149    -169.319     246.761
  N     1908.630    -168.312     247.669
  C     1908.081    -168.796     248.860
  O     1907.996    -170.001     249.133
  N     1907.579    -167.857     249.718
  C     1907.560    -166.515     249.499
  O     1907.117    -165.719     250.319
  C     1908.110    -166.073     248.218
  C     1908.598    -166.961     247.371
  O     1913.254    -166.619     242.934
  O     1910.943    -165.383     243.056
  H     1913.853    -167.141     243.493
  H     1909.295    -171.524     245.506
  H     1907.196    -168.193     250.575
  H     1908.071    -164.991     248.009
  H     1908.997    -166.647     246.416
  H     1909.820    -169.987     247.314
  H     1907.075    -170.119     246.577
  H     1907.430    -168.599     244.699
  H     1910.020    -170.150     244.221
  H     1909.335    -168.603     242.390
  H     1909.244    -167.259     243.514
  P     1906.818    -169.654     242.373
  C     1908.169    -170.628     240.361
  O     1907.957    -169.557     241.240
  O     1906.670    -168.147     242.889
  O     1905.528    -170.277     241.932
  H     1907.461    -167.829     243.371
  H     1908.700    -170.261     239.487
  H     1907.225    -171.045     240.008
  H     1908.766    -171.405     240.834
  H     1913.398    -166.767     246.597
  H     1914.014    -166.065     245.120
  H     1913.651    -167.773     245.190

 3  4  5  6  7  8  9  10  11  12  13  24  28  29  30  31  32 0
 6-311+G(2d,p)
 ****
 33  34 0
 6-311+G(2d,p)
 ****
 1  2  14  15  16  17  18  19  20  21  22  23  25  26  27 0
 3-21G
 ****
 35  36  37  38  39  40  41  42  43  44  45 0
 3-21G
 ****


