%nproc=1
%NoSave
%Mem=1900MB
#P OB98/GEN NMR

erre ene a

0 1
  C     -223.833     -61.594     351.107
  O     -224.911     -62.398     351.547
  H     -223.288     -61.202     351.969
  H     -223.156     -62.211     350.510
  H     -224.197     -60.769     350.488
  P     -226.114     -61.646     352.296
  C     -225.118     -61.263     354.668
  O     -225.977     -62.043     353.848
  C     -224.781     -62.017     355.956
  O     -225.883     -61.859     356.890
  C     -224.559     -63.515     355.747
  O     -223.493     -63.948     356.596
  C     -225.868     -64.136     356.204
  O     -225.710     -65.486     356.627
  C     -226.284     -63.176     357.315
  N     -230.171     -66.168     358.740
  C     -228.838     -66.378     358.694
  N     -227.868     -65.524     358.306
  C     -228.392     -64.325     357.986
  C     -229.728     -63.962     357.984
  C     -230.646     -64.951     358.373
  N     -232.008     -64.757     358.389
  N     -229.870     -62.654     357.558
  C     -228.644     -62.241     357.311
  N     -227.715     -63.217     357.553
  O     -227.393     -62.478     351.806
  O     -226.248     -60.190     352.010
  H     -225.124     -65.496     357.411
  H     -227.649     -62.184     350.910
  H     -228.507     -67.369     359.002
  H     -228.376     -61.256     356.952
  H     -225.791     -63.398     358.271
  H     -226.592     -64.120     355.382
  H     -224.324     -63.769     354.711
  H     -223.906     -61.545     356.419
  H     -225.619     -60.322     354.914
  H     -232.596     -65.539     358.625
  H     -232.381     -63.881     358.061
  H     -224.196     -61.044     354.117
  P     -221.999     -63.633     356.099
  C     -220.997     -65.968     356.608
  O     -220.979     -64.577     356.904
  O     -221.711     -62.172     356.690
  O     -221.848     -63.657     354.612
  H     -221.364     -61.591     355.990
  H     -220.272     -66.471     357.214
  H     -220.763     -66.116     355.575
  H     -221.970     -66.364     356.813

 6  7  8  9  10  11  12  13  14  15  25  28  32  33  34  35 0
 6-311+G(2d,p)
 ****
 36  39  40 0
 6-311+G(2d,p)
 ****
 1  2  3  4  5  16  17  18  19  20  21  22  23  24 0
 3-21G
 ****
 26  27  29  30  31  37  38  41  42  43  44  45  46  47 0
 3-21G
 ****
 48 0
 3-21G
 ****


