%nproc=1
%NoSave
%Mem=1900MB
#P OB98/GEN NMR

erre ene a

0 1
  C      183.312     242.767     227.580
  O      183.010     241.448     227.161
  P      182.774     241.202     225.589
  C      180.527     239.937     225.952
  O      181.866     239.883     225.472
  C      179.616     239.099     225.056
  O      179.699     239.539     223.686
  C      179.963     237.621     225.024
  O      179.451     236.916     226.146
  C      179.254     237.180     223.757
  O      177.850     236.981     224.018
  C      179.459     238.389     222.837
  N      181.275     235.643     218.992
  C      180.009     235.659     219.546
  N      179.122     234.779     219.041
  N      179.645     236.472     220.505
  C      180.643     237.293     220.917
  C      181.936     237.370     220.444
  C      182.326     236.462     219.388
  O      183.441     236.362     218.900
  N      182.651     238.334     221.104
  C      181.797     238.841     221.972
  N      180.579     238.217     221.930
  O      184.206     240.708     225.073
  O      182.287     242.394     224.837
  H      177.794     236.397     224.801
  H      184.258     240.787     224.101
  H      181.505     234.996     218.258
  H      182.023     239.647     222.661
  H      178.570     238.606     222.238
  H      179.637     236.234     223.359
  H      179.356     234.084     218.344
  H      181.046     237.463     224.910
  H      178.204     234.725     219.471
  H      178.581     239.246     225.398
  H      180.186     240.977     225.950
  H      180.500     239.567     226.978
  P      180.513     236.451     227.256
  C      179.088     234.279     227.315
  O      179.802     235.255     228.050
  O      180.502     237.662     228.300
  O      181.880     236.171     226.725
  H      181.354     237.717     228.773
  H      178.907     233.417     227.965
  H      179.660     233.946     226.444
  H      178.128     234.687     226.989
  H      183.443     242.783     228.642
  H      182.508     243.420     227.310
  H      184.213     243.095     227.105

 3  4  5  6  7  8  9  10  11  12  23  26  30  31 0
 6-311+G(2d,p)
 ****
 33  35  36  37  38 0
 6-311+G(2d,p)
 ****
 1  2  13  14  15  16  17  18  19  20  21  22  24  25 0
 3-21G
 ****
 27  28  29  32  34  39  40  41  42  43  44  45  46  47  48  49 0
 3-21G
 ****


