%nproc=1
%NoSave
%Mem=1900MB
#P OB98/GEN NMR

erre ene a

0 1
  C      925.064     236.579    -807.089
  O      926.022     235.615    -806.724
  H      924.667     237.047    -806.177
  H      924.242     236.106    -807.636
  H      925.520     237.368    -807.710
  P      926.891     234.962    -807.915
  C      926.063     233.779    -810.072
  O      925.915     233.929    -808.672
  C      924.722     233.416    -810.704
  O      923.836     234.551    -810.704
  C      924.813     232.945    -812.156
  O      925.174     231.561    -812.235
  C      923.392     233.173    -812.617
  O      922.538     232.134    -812.115
  C      923.045     234.513    -811.923
  N      921.570     237.306    -815.899
  C      921.024     236.147    -815.379
  N      919.940     235.651    -815.990
  N      921.497     235.527    -814.329
  C      922.612     236.118    -813.804
  C      923.245     237.263    -814.234
  C      922.690     237.945    -815.378
  O      923.121     238.985    -815.883
  N      924.321     237.559    -813.460
  C      924.351     236.593    -812.553
  N      923.341     235.684    -812.743
  O      927.920     234.010    -807.148
  O      927.594     235.940    -808.798
  H      921.666     232.242    -812.553
  H      928.785     234.021    -807.618
  H      921.171     237.730    -816.704
  H      925.103     236.497    -811.767
  H      921.990     234.575    -811.650
  H      923.289     233.177    -813.700
  H      919.547     236.066    -816.836
  H      925.510     233.573    -812.740
  H      919.506     234.825    -815.604
  H      924.244     232.642    -810.082
  H      926.797     232.983    -810.294
  H      926.431     234.717    -810.492
  P      925.634     231.001    -813.667
  C      924.467     230.717    -815.993
  O      924.342     231.096    -814.623
  O      925.788     229.425    -813.412
  O      926.889     231.621    -814.216
  H      926.393     229.041    -814.074
  H      923.524     230.839    -816.484
  H      924.771     229.693    -816.053
  H      925.199     231.335    -816.469

 6  7  8  9  10  11  12  13  14  15  26  29  33  34 0
 6-311+G(2d,p)
 ****
 36  38  39  40  41 0
 6-311+G(2d,p)
 ****
 1  2  3  4  5  16  17  18  19  20  21  22  23  24  25 0
 3-21G
 ****
 27  28  30  31  32  35  37  42  43  44  45  46  47 0
 3-21G
 ****
 48  49 0
 3-21G
 ****


