%nproc=1
%NoSave
%Mem=1900MB
#P OB98/GEN NMR

erre ene a

0 1
  C      126.116    -254.761     127.525
  O      124.847    -254.474     126.952
  P      123.573    -254.437     127.926
  C      123.254    -257.021     127.756
  O      122.689    -255.731     127.581
  C      122.179    -258.023     128.194
  O      122.744    -259.364     128.122
  C      121.661    -257.825     129.627
  O      120.288    -258.235     129.631
  C      122.492    -258.812     130.432
  O      121.880    -259.161     131.671
  C      122.610    -259.959     129.430
  N      124.610    -263.311     132.660
  C      123.439    -262.574     132.760
  N      122.668    -262.817     133.848
  N      123.060    -261.689     131.876
  C      123.927    -261.570     130.834
  C      125.129    -262.212     130.644
  C      125.518    -263.218     131.609
  O      126.497    -263.952     131.517
  N      125.763    -261.768     129.515
  C      124.912    -260.920     128.982
  N      123.760    -260.802     129.718
  O      122.714    -253.222     127.346
  O      123.876    -254.281     129.388
  H      121.107    -259.734     131.471
  H      122.916    -252.388     127.816
  H      124.837    -263.996     133.361
  H      125.064    -260.361     128.068
  H      121.717    -260.605     129.427
  H      123.476    -258.380     130.649
  H      122.884    -263.508     134.549
  H      121.759    -256.801     129.986
  H      121.789    -262.310     133.927
  H      121.354    -257.981     127.479
  H      124.018    -256.967     128.538
  H      123.730    -257.346     126.821
  P      119.224    -257.278     130.363
  C      119.384    -258.595     132.588
  O      118.555    -258.115     131.545
  O      118.045    -257.171     129.274
  O      119.745    -255.921     130.724
  H      117.617    -256.296     129.337
  H      118.773    -258.775     133.476
  H      120.175    -257.877     132.843
  H      119.845    -259.543     132.280
  H      126.863    -254.751     126.759
  H      126.089    -255.727     127.985
  H      126.350    -254.021     128.262

 3  4  5  6  7  8  9  10  11  12  23  26  30  31 0
 6-311+G(2d,p)
 ****
 33  35  36  37  38 0
 6-311+G(2d,p)
 ****
 1  2  13  14  15  16  17  18  19  20  21  22  24  25 0
 3-21G
 ****
 27  28  29  32  34  39  40  41  42  43  44  45  46  47  48  49 0
 3-21G
 ****


