%nproc=1
%NoSave
%Mem=1900MB
#P OB98/GEN NMR

erre ene a

0 1
  C      -53.406      79.412    -344.126
  O      -54.204      79.481    -342.960
  H      -53.968      78.891    -344.906
  H      -52.486      78.857    -343.921
  H      -53.161      80.418    -344.478
  P      -53.558      80.229    -341.697
  C      -52.093      78.232    -340.884
  O      -53.204      79.081    -340.636
  C      -51.707      77.475    -339.607
  O      -51.276      78.445    -338.605
  C      -52.857      76.670    -338.986
  O      -52.288      75.549    -338.289
  C      -53.417      77.663    -337.978
  O      -54.279      77.024    -337.065
  C      -52.113      78.242    -337.445
  N      -54.339      80.518    -333.440
  C      -54.319      79.228    -333.844
  N      -53.694      78.697    -334.914
  C      -53.015      79.642    -335.589
  C      -52.938      80.992    -335.295
  C      -53.643      81.429    -334.159
  N      -53.672      82.742    -333.750
  N      -52.149      81.649    -336.224
  C      -51.763      80.709    -337.062
  N      -52.267      79.484    -336.724
  O      -54.805      80.986    -341.040
  O      -52.436      81.163    -342.009
  H      -54.708      77.683    -336.473
  H      -54.840      81.907    -341.360
  H      -54.881      78.533    -333.226
  H      -51.129      80.862    -337.930
  H      -51.595      77.537    -336.780
  H      -54.009      78.434    -338.483
  H      -53.586      76.313    -339.720
  H      -50.838      76.836    -339.820
  H      -51.252      78.847    -341.222
  H      -52.351      77.514    -341.671
  H      -54.219      82.978    -332.937
  H      -53.175      83.438    -334.287
  P      -51.957      74.206    -339.111
  C      -54.300      73.050    -338.938
  O      -52.926      73.036    -338.585
  O      -50.545      73.772    -338.480
  O      -51.855      74.359    -340.591
  H      -50.038      73.267    -339.144
  H      -54.788      72.203    -338.504
  H      -54.395      73.009    -340.003
  H      -54.753      73.948    -338.573

 6  7  8  9  10  11  12  13  14  15  25  28  32  33  34  35 0
 6-311+G(2d,p)
 ****
 36  37  40 0
 6-311+G(2d,p)
 ****
 1  2  3  4  5  16  17  18  19  20  21  22  23  24 0
 3-21G
 ****
 26  27  29  30  31  38  39 41  42  43  44  45  46  47  48 0
 3-21G
 ****


