%nproc=1
%NoSave
%Mem=1900MB
#P OB98/GEN NMR

erre ene a

0 1
  C      623.495      -0.583     190.720
  O      622.565      -1.675     190.796
  P      622.752      -2.941     191.762
  C      621.020      -2.159     193.534
  O      622.386      -2.480     193.260
  C      620.354      -3.284     194.334
  O      620.967      -3.395     195.645
  C      618.868      -3.067     194.629
  O      618.060      -3.256     193.486
  C      618.646      -4.093     195.744
  O      618.383      -5.394     195.211
  C      619.998      -4.081     196.487
  N      619.923      -3.465     197.801
  C      620.003      -4.321     198.906
  O      620.040      -5.544     198.742
  N      620.004      -3.771     200.160
  C      619.854      -2.492     200.309
  N      619.888      -2.007     201.584
  C      619.634      -1.570     199.180
  C      619.676      -2.113     197.970
  O      624.085      -3.602     191.652
  O      621.571      -3.957     191.385
  H      621.841      -4.869     191.598
  H      618.053      -5.942     195.957
  H      619.462      -0.514     199.350
  H      619.545      -1.503     197.081
  H      620.379      -5.105     196.586
  H      617.790      -3.823     196.378
  H      618.723      -2.052     195.030
  H      620.504      -4.225     193.790
  H      620.055      -2.661     202.334
  H      620.501      -2.036     192.584
  H      619.791      -1.025     201.807
  H      620.983      -1.206     194.078
  P      616.845      -2.228     193.273
  C      617.966      -0.855     191.373
  O      617.456      -0.864     192.695
  O      616.409      -1.846     194.773
  O      615.689      -2.779     192.503
  H      615.438      -1.771     194.822
  H      617.883       0.155     190.975
  H      617.418      -1.548     190.720
  H      619.022      -1.145     191.395
  H      623.147       0.133     190.005
  H      624.453      -0.951     190.418
  H      623.578      -0.118     191.680

 3  4  5  6  7  8  9  10  11  12  13  24  27  28  29  30  32 0
 6-311+G(2d,p)
 ****
 34  35 0
 6-311+G(2d,p)
 ****
 1  2  14  15  16  17  18  19  20  21  22  23  25  26 0
 3-21G
 ****
 31  33  36  37  38  39  40  41  42  43  44  45  46 0
 3-21G
 ****


