%nproc=1
%NoSave
%Mem=1900MB
#P OB98/GEN NMR

erre ene a

0 1
  C     -100.219     -11.376       1.259
  O     -101.388     -12.055       0.810
  P     -101.357     -12.689      -0.662
  C     -100.360     -15.111      -0.830
  O     -101.463     -14.282      -0.511
  C     -100.737     -16.599      -0.716
  O     -101.226     -16.848       0.628
  C     -101.855     -17.062      -1.645
  O     -101.807     -18.488      -1.745
  C     -103.089     -16.652      -0.871
  O     -104.250     -17.337      -1.332
  C     -102.674     -16.941       0.589
  N     -103.269     -16.006       1.570
  C     -104.569     -16.245       2.009
  O     -105.260     -17.190       1.629
  N     -105.087     -15.329       2.886
  C     -104.434     -14.246       3.390
  O     -104.975     -13.410       4.105
  C     -103.023     -14.119       3.005
  C     -102.516     -14.980       2.120
  O      -99.855     -12.439      -1.146
  O     -102.357     -12.092      -1.594
  H     -104.061     -18.299      -1.247
  H      -99.828     -11.716      -1.801
  H     -106.052     -15.453       3.160
  H     -102.451     -13.307       3.438
  H     -101.479     -14.888       1.809
  H     -102.967     -17.955       0.890
  H     -103.268     -15.581      -1.005
  H     -101.830     -16.617      -2.643
  H      -99.837     -17.210      -0.858
  H      -99.519     -14.880      -0.170
  H     -100.024     -14.898      -1.851
  P     -101.686     -19.135      -3.207
  C      -99.137     -19.234      -3.526
  O     -100.311     -19.962      -3.221
  O     -101.893     -18.207      -4.355
  O     -102.791     -20.298      -3.176
  H     -103.017     -20.561      -4.086
  H      -98.289     -19.708      -3.024
  H      -99.212     -18.194      -3.197
  H      -98.969     -19.260      -4.607
  H     -100.380     -11.007       2.250
  H     -100.008     -10.557       0.603
  H      -99.391     -12.054       1.261

 3  4  5  6  7  8  9  10  11  12  13  23  28  29  30  31  32 0
 6-311+G(2d,p)
 ****
 33  34 0
 6-311+G(2d,p)
 ****
 1  2  14  15  16  17  18  19  20  21  22  24  25  26  27 0
 3-21G
 ****
 35  36  37  38  39  40  41  42  43  44  45 0
 3-21G
 ****


