%nproc=1
%NoSave
%Mem=1900MB
#P OB98/GEN NMR

erre ene a

0 1
  C       62.900      95.738     -85.995
  O       63.083      94.374     -86.315
  P       62.737      93.212     -85.266
  C       60.481      92.271     -84.469
  O       61.195      93.430     -84.869
  C       59.442      92.600     -83.393
  O       60.092      92.664     -82.094
  C       58.700      93.927     -83.606
  O       57.374      93.731     -83.108
  C       59.470      94.878     -82.710
  O       58.733      96.051     -82.392
  C       59.796      93.957     -81.526
  N       60.898      94.472     -80.721
  C       60.743      95.752     -80.188
  O       59.749      96.426     -80.469
  N       61.739      96.267     -79.396
  C       62.840      95.598     -79.239
  N       63.790      96.154     -78.442
  C       63.094      94.298     -79.887
  C       62.087      93.790     -80.593
  O       63.674      93.098     -84.112
  O       62.678      91.894     -86.172
  H       59.326      96.669     -81.913
  H       63.591      91.584     -86.390
  H       64.048      93.804     -79.773
  H       62.179      92.842     -81.104
  H       58.919      93.838     -80.877
  H       60.394      95.191     -83.212
  H       58.680      94.255     -84.647
  H       58.723      91.773     -83.356
  H       63.567      97.041     -78.005
  H       61.198      91.556     -84.057
  H       64.643      95.681     -78.187
  H       60.006      91.805     -85.338
  P       56.136      94.572     -83.681
  C       55.206      95.099     -86.006
  O       56.337      94.682     -85.264
  O       55.879      95.871     -82.988
  O       54.883      93.580     -83.539
  H       54.054      94.090     -83.626
  H       55.528      95.405     -87.005
  H       54.706      95.942     -85.520
  H       54.502      94.266     -86.098
  H       63.190      96.342     -86.829
  H       63.502      95.989     -85.147
  H       61.870      95.916     -85.767

 3  4  5  6  7  8  9  10  11  12  13  23  27  28  29  30  32 0
 6-311+G(2d,p)
 ****
 34  35 0
 6-311+G(2d,p)
 ****
 1  2  14  15  16  17  18  19  20  21  22  24  25  26 0
 3-21G
 ****
 31  33  36  37  38  39  40  41  42  43  44  45  46 0
 3-21G
 ****


