%nproc=1
%NoSave
%Mem=1900MB
#P OB98/GEN NMR

erre ene a

0 1
  C       -7.035     -26.385    -211.554
  O       -7.936     -27.195    -212.278
  H       -6.049     -26.455    -212.020
  H       -6.963     -26.735    -210.522
  H       -7.360     -25.342    -211.574
  P       -9.464     -27.222    -211.778
  C      -10.608     -28.498    -209.819
  O       -9.546     -28.468    -210.765
  C      -10.814     -29.921    -209.293
  O      -11.182     -30.786    -210.396
  C       -9.567     -30.510    -208.631
  O       -9.947     -31.197    -207.438
  C       -9.025     -31.482    -209.662
  O       -8.265     -32.532    -209.067
  C      -10.301     -31.924    -210.389
  N      -10.021     -32.389    -211.745
  C      -10.473     -33.669    -212.082
  O      -11.065     -34.354    -211.245
  N      -10.199     -34.163    -213.330
  C       -9.481     -33.466    -214.156
  N       -9.224     -34.021    -215.369
  C       -8.941     -32.131    -213.827
  C       -9.252     -31.657    -212.624
  O      -10.255     -27.731    -213.070
  O       -9.973     -25.934    -211.223
  H       -7.614     -32.126    -208.450
  H      -11.228     -27.593    -212.976
  H       -8.334     -31.597    -214.543
  H       -8.897     -30.685    -212.295
  H      -10.800     -32.734    -209.838
  H       -8.367     -30.945    -210.357
  H       -8.823     -29.756    -208.381
  H      -11.666     -29.916    -208.604
  H       -9.601     -34.941    -215.555
  H      -11.524     -28.146    -210.304
  H       -8.653     -33.582    -216.078
  H      -10.364     -27.832    -208.985
  P       -9.024     -30.927    -206.150
  C       -6.782     -31.872    -205.253
  O       -7.642     -31.716    -206.371
  O       -9.756     -31.750    -204.988
  O       -8.873     -29.480    -205.815
  H      -10.299     -31.153    -204.439
  H       -5.907     -32.413    -205.549
  H       -7.292     -32.412    -204.483
  H       -6.498     -30.909    -204.884

 6  7  8  9  10  11  12  13  14  15  16  26  30  31  32  33  35 0
 6-311+G(2d,p)
 ****
 37  38 0
 6-311+G(2d,p)
 ****
 1  2  3  4  5  17  18  19  20  21  22  23  24  25 0
 3-21G
 ****
 27  28  29  34  36  39  40  41  42  43  44  45  46 0
 3-21G
 ****


