%nproc=1
%NoSave
%Mem=1900MB
#P OB98/GEN NMR

erre ene a

0 1
  C     -207.588     352.826      20.399
  O     -208.017     352.291      21.624
  P     -207.059     351.525      22.648
  C     -208.250     352.712      24.653
  O     -207.768     351.500      24.088
  C     -209.010     352.445      25.964
  O     -210.273     351.809      25.640
  C     -208.240     351.475      26.878
  O     -208.258     351.834      28.253
  C     -208.817     350.117      26.501
  O     -208.612     349.119      27.489
  C     -210.274     350.476      26.200
  N     -213.635     346.695      25.684
  C     -213.405     347.507      26.778
  N     -214.025     347.156      27.926
  N     -212.615     348.550      26.744
  C     -211.978     348.716      25.562
  C     -212.132     347.976      24.408
  C     -213.032     346.851      24.443
  O     -213.181     346.036      23.539
  N     -211.276     348.395      23.416
  C     -210.582     349.361      23.980
  N     -210.958     349.572      25.291
  O     -205.607     351.869      22.584
  O     -207.221     349.991      22.162
  H     -207.695     349.212      27.823
  H     -206.359     349.556      22.307
  H     -214.196     345.855      25.794
  H     -209.788     349.925      23.502
  H     -210.870     350.489      27.113
  H     -208.306     349.780      25.591
  H     -214.517     346.283      28.014
  H     -207.166     351.488      26.626
  H     -213.680     347.576      28.789
  H     -209.233     353.397      26.448
  H     -208.927     353.141      23.905
  H     -207.436     353.418      24.815
  P     -207.027     352.043      29.249
  C     -207.111     354.545      29.817
  O     -207.388     353.234      30.263
  O     -205.863     352.685      28.348
  O     -206.542     350.793      29.908
  H     -205.003     352.302      28.612
  H     -207.132     355.222      30.673
  H     -207.863     354.856      29.096
  H     -206.114     354.601      29.350
  H     -208.416     353.286      19.901
  H     -207.194     352.042      19.786
  H     -206.827     353.557      20.576

 3  4  5  6  7  8  9  10  11  12  23  26  30  31 0
 6-311+G(2d,p)
 ****
 33  35  36  37  38 0
 6-311+G(2d,p)
 ****
 1  2  13  14  15  16  17  18  19  20  21  22  24  25 0
 3-21G
 ****
 27  28  29  32  34  39  40  41  42  43  44  45  46  47  48  49 0
 3-21G
 ****


