%nproc=1
%NoSave
%Mem=1900MB
#P OB98/GEN NMR

erre ene a

0 1
  C     -365.600     379.448     -94.155
  O     -365.933     378.059     -94.054
  P     -364.832     377.104     -93.374
  C     -364.128     375.841     -95.535
  O     -363.743     376.726     -94.490
  C     -362.901     375.385     -96.321
  O     -362.248     376.497     -96.986
  C     -361.826     374.752     -95.446
  O     -362.194     373.438     -95.057
  C     -360.615     374.825     -96.379
  O     -360.658     373.761     -97.351
  C     -360.835     376.180     -97.078
  N     -357.178     379.638     -97.982
  C     -357.737     378.689     -98.766
  N     -358.704     377.805     -98.448
  C     -359.106     377.973     -97.178
  C     -358.630     378.898     -96.261
  C     -357.611     379.757     -96.702
  N     -357.028     380.717     -95.900
  N     -359.282     378.770     -95.055
  C     -360.115     377.766     -95.227
  N     -360.064     377.258     -96.499
  O     -365.631     375.739     -93.138
  O     -364.272     377.649     -92.104
  H     -361.322     374.008     -98.028
  H     -365.803     375.613     -92.183
  H     -357.354     378.627     -99.781
  H     -360.787     377.369     -94.468
  H     -360.587     376.136     -98.147
  H     -359.666     374.741     -95.849
  H     -361.648     375.368     -94.553
  H     -363.230     374.672     -97.088
  H     -364.838     376.337     -96.208
  H     -356.253     381.237     -96.275
  H     -357.285     380.754     -94.921
  H     -364.659     374.990     -95.098
  P     -362.464     373.171     -93.501
  C     -360.107     372.147     -93.562
  O     -360.992     373.015     -92.872
  O     -363.003     371.669     -93.524
  O     -363.347     374.170     -92.834
  H     -362.449     371.092     -94.089
  H     -359.137     372.159     -93.054
  H     -359.974     372.478     -94.603
  H     -360.502     371.129     -93.548
  H     -366.406     379.975     -94.621
  H     -364.713     379.560     -94.743
  H     -365.432     379.847     -93.176

 3  4  5  6  7  8  9  10  11  12  22  25  29  30  31  32 0
 6-311+G(2d,p)
 ****
 33  36  37 0
 6-311+G(2d,p)
 ****
 1  2  13  14  15  16  17  18  19  20  21  23  24  26 0
 3-21G
 ****
 27  28  34  35  38  39  40  41  42  43  44  45  46  47  48 0
 3-21G
 ****


