%nproc=1
%NoSave
%Mem=1900MB
#P OB98/GEN NMR

erre ene a

0 1
  C     1093.147     538.894    -556.087
  O     1092.316     539.423    -557.116
  P     1092.780     539.178    -558.645
  C     1090.486     538.707    -559.773
  O     1091.550     539.624    -559.561
  C     1089.601     539.164    -560.946
  O     1088.786     540.278    -560.503
  C     1090.373     539.634    -562.194
  O     1089.574     539.284    -563.330
  C     1090.419     541.132    -562.029
  O     1090.656     541.814    -563.252
  C     1089.057     541.389    -561.390
  N     1087.721     546.264    -561.544
  C     1087.670     545.322    -562.546
  N     1087.148     545.709    -563.715
  N     1088.115     544.087    -562.391
  C     1088.586     543.844    -561.146
  C     1088.709     544.717    -560.094
  C     1088.196     546.053    -560.253
  O     1088.130     546.918    -559.382
  N     1089.336     544.114    -559.008
  C     1089.501     542.869    -559.399
  N     1089.031     542.649    -560.666
  O     1092.801     537.588    -558.761
  O     1094.086     539.827    -559.022
  H     1089.990     541.529    -563.896
  H     1093.703     537.239    -558.585
  H     1087.346     547.190    -561.706
  H     1089.962     542.088    -558.800
  H     1088.244     541.436    -562.153
  H     1091.226     541.402    -561.329
  H     1086.777     546.618    -563.899
  H     1091.372     539.174    -562.273
  H     1087.096     545.011    -564.470
  H     1088.924     538.335    -561.201
  H     1089.857     538.671    -558.870
  H     1090.890     537.700    -559.962
  P     1090.290     538.559    -564.562
  C     1087.985     537.762    -565.405
  O     1089.216     538.384    -565.723
  O     1090.524     537.074    -564.038
  O     1091.599     539.189    -564.971
  H     1091.338     536.711    -564.422
  H     1087.225     538.059    -566.133
  H     1087.633     538.036    -564.421
  H     1088.108     536.668    -565.452
  H     1092.725     539.128    -555.132
  H     1094.124     539.325    -556.160
  H     1093.217     537.832    -556.196

 3  4  5  6  7  8  9  10  11  12  23  26  30  31 0
 6-311+G(2d,p)
 ****
 33  35  36  37  38 0
 6-311+G(2d,p)
 ****
 1  2  13  14  15  16  17  18  19  20  21  22  24  25 0
 3-21G
 ****
 27  28  29  32  34  39  40  41  42  43  44  45  46  47  48  49 0
 3-21G
 ****


