%nproc=1
%NoSave
%Mem=1900MB
#P OB98/GEN NMR

erre ene a

0 1
  C       58.318     -44.380     -33.853
  O       56.926     -44.466     -33.582
  P       55.997     -45.177     -34.683
  C       55.989     -47.376     -33.302
  O       55.218     -46.342     -33.902
  C       55.269     -47.942     -32.082
  O       55.386     -47.033     -30.969
  C       53.776     -48.164     -32.275
  O       53.496     -49.384     -32.940
  C       53.305     -48.227     -30.832
  O       53.587     -49.528     -30.282
  C       54.187     -47.168     -30.161
  N       51.943     -43.899     -26.934
  C       52.426     -45.147     -26.759
  N       52.999     -45.958     -27.671
  C       53.015     -45.375     -28.882
  C       52.525     -44.125     -29.219
  C       51.976     -43.361     -28.177
  N       51.511     -42.078     -28.352
  N       52.718     -43.874     -30.560
  C       53.321     -44.947     -31.023
  N       53.533     -45.879     -30.045
  O       57.052     -45.977     -35.582
  O       55.156     -44.250     -35.492
  H       52.999     -50.160     -30.738
  H       56.677     -46.142     -36.469
  H       52.350     -45.543     -25.750
  H       53.631     -45.089     -32.050
  H       54.505     -47.467     -29.156
  H       52.229     -48.063     -30.728
  H       53.308     -47.307     -32.776
  H       55.764     -48.881     -31.804
  H       56.953     -46.966     -32.989
  H       51.305     -41.535     -27.528
  H       51.720     -41.611     -29.227
  H       56.166     -48.164     -34.041
  P       51.952     -49.706     -33.243
  C       51.777     -48.592     -35.583
  O       51.842     -49.792     -34.838
  O       51.218     -48.333     -32.876
  O       51.410     -50.865     -32.476
  H       50.288     -48.499     -32.632
  H       52.018     -48.813     -36.626
  H       52.493     -47.855     -35.209
  H       50.766     -48.180     -35.535
  H       58.810     -43.887     -33.041
  H       58.472     -43.824     -34.754
  H       58.720     -45.365     -33.968

 3  4  5  6  7  8  9  10  11  12  22  25  29  30  31  32 0
 6-311+G(2d,p)
 ****
 33  36  37 0
 6-311+G(2d,p)
 ****
 1  2  13  14  15  16  17  18  19  20  21  23  24  26 0
 3-21G
 ****
 27  28  34  35  38  39  40  41  42  43  44  45  46  47  48 0
 3-21G
 ****


