%nproc=1
%NoSave
%Mem=1900MB
#P OB98/GEN NMR

erre ene a

0 1
  C     -332.300    -768.912     393.226
  O     -332.656    -767.871     394.112
  H     -331.319    -769.293     393.512
  H     -332.247    -768.540     392.196
  H     -333.024    -769.728     393.289
  P     -334.035    -767.088     393.872
  C     -333.629    -764.668     394.680
  O     -334.131    -765.960     395.003
  C     -333.386    -763.849     395.952
  O     -334.674    -763.647     396.593
  C     -332.470    -764.577     396.953
  O     -331.364    -763.784     397.382
  C     -333.442    -765.075     398.023
  O     -332.864    -765.253     399.306
  C     -334.574    -764.042     397.974
  N     -335.851    -764.542     398.469
  C     -336.291    -764.073     399.706
  O     -335.695    -763.255     400.409
  N     -337.495    -764.579     400.136
  C     -338.270    -765.489     399.476
  O     -339.332    -765.897     399.919
  C     -337.739    -765.966     398.184
  C     -336.582    -765.481     397.746
  O     -335.255    -767.949     393.740
  O     -333.771    -766.239     392.536
  H     -332.066    -765.807     399.199
  H     -334.205    -766.674     391.779
  H     -337.822    -764.251     401.036
  H     -338.326    -766.691     397.638
  H     -336.166    -765.803     396.796
  H     -334.318    -763.157     398.563
  H     -333.825    -766.048     397.714
  H     -331.977    -765.451     396.489
  H     -332.991    -762.874     395.674
  H     -334.363    -764.175     394.038
  H     -332.682    -764.775     394.129
  P     -329.832    -764.091     397.058
  C     -328.620    -763.336     399.259
  O     -328.918    -763.065     397.897
  O     -329.507    -764.265     395.608
  O     -329.587    -765.515     397.790
  H     -328.925    -765.988     397.246
  H     -328.006    -762.553     399.653
  H     -328.099    -764.268     399.332
  H     -329.530    -763.392     399.819

 6  7  8  9  10  11  12  13  14  15  16  26  31  32  33  34  35 0
 6-311+G(2d,p)
 ****
 36  37 0
 6-311+G(2d,p)
 ****
 1  2  3  4  5  17  18  19  20  21  22  23  24  25 0
 3-21G
 ****
 27  28  29  30  38  39  40  41  42  43  44  45 0
 3-21G
 ****


