%nproc=1
%NoSave
%Mem=1900MB
#P OB98/GEN NMR

erre ene a

0 1
  C      -45.648    -201.889    -400.684
  O      -44.952    -201.869    -401.935
  P      -44.670    -203.187    -402.801
  C      -42.461    -204.122    -401.848
  O      -43.879    -204.257    -401.906
  C      -41.845    -205.086    -400.832
  O      -42.288    -204.769    -399.496
  C      -42.207    -206.554    -401.037
  O      -41.476    -207.114    -402.120
  C      -41.862    -207.138    -399.674
  O      -40.457    -207.415    -399.564
  C      -42.273    -205.989    -398.724
  N      -43.556    -206.225    -398.075
  C      -43.786    -207.523    -397.606
  O      -42.953    -208.408    -397.785
  N      -44.971    -207.782    -396.949
  C      -45.869    -206.856    -396.851
  N      -47.017    -207.170    -396.191
  C      -45.705    -205.499    -397.419
  C      -44.533    -205.263    -398.011
  O      -44.038    -202.928    -404.126
  O      -46.111    -203.863    -402.997
  H      -40.248    -208.043    -400.285
  H      -46.132    -204.340    -403.858
  H      -46.489    -204.767    -397.344
  H      -44.324    -204.288    -398.452
  H      -41.509    -205.843    -397.950
  H      -42.391    -208.080    -399.469
  H      -43.285    -206.645    -401.219
  H      -40.756    -204.953    -400.864
  H      -47.096    -208.098    -395.807
  H      -42.230    -203.092    -401.554
  H      -47.780    -206.520    -396.056
  H      -42.053    -204.306    -402.848
  P      -42.231    -207.439    -403.500
  C      -42.351    -209.995    -403.270
  O      -43.084    -208.780    -403.284
  O      -41.369    -207.416    -404.719
  O      -43.374    -206.316    -403.583
  H      -43.540    -206.100    -404.521
  H      -42.936    -210.745    -402.733
  H      -41.382    -209.867    -402.770
  H      -42.183    -210.326    -404.299
  H      -45.713    -200.894    -400.296
  H      -45.118    -202.508    -399.991
  H      -46.633    -202.280    -400.830

 3  4  5  6  7  8  9  10  11  12  13  23  27  28  29  30  32 0
 6-311+G(2d,p)
 ****
 34  35 0
 6-311+G(2d,p)
 ****
 1  2  14  15  16  17  18  19  20  21  22  24  25  26 0
 3-21G
 ****
 31  33  36  37  38  39  40  41  42  43  44  45  46 0
 3-21G
 ****


