%nproc=1
%NoSave
%Mem=1900MB
#P OB98/GEN NMR

erre ene a

0 1
  C      -66.673     -88.435     141.575
  O      -65.272     -88.712     141.690
  P      -64.677     -90.201     141.711
  C      -63.620     -89.948     139.372
  O      -64.483     -90.715     140.207
  C      -62.709     -90.844     138.527
  O      -63.480     -91.847     137.840
  C      -61.928     -90.117     137.441
  O      -60.836     -89.399     137.987
  C      -61.539     -91.280     136.533
  O      -60.372     -91.957     137.030
  C      -62.781     -92.187     136.627
  N      -63.646     -92.073     135.460
  C      -63.359     -92.916     134.384
  O      -62.384     -93.667     134.422
  N      -64.174     -92.870     133.278
  C      -65.139     -92.007     133.224
  N      -65.916     -92.011     132.107
  C      -65.418     -91.037     134.299
  C      -64.642     -91.128     135.376
  O      -65.439     -91.146     142.584
  O      -63.175     -90.040     142.246
  H      -60.154     -92.648     136.376
  H      -62.923     -90.845     142.736
  H      -66.214     -90.315     134.202
  H      -64.785     -90.460     136.218
  H      -62.479     -93.237     136.736
  H      -61.312     -90.957     135.512
  H      -62.595     -89.439     136.895
  H      -62.021     -91.361     139.211
  H      -65.702     -92.694     131.391
  H      -63.003     -89.308     140.013
  H      -66.692     -91.383     131.965
  H      -64.231     -89.311     138.725
  P      -60.859     -87.798     137.990
  C      -61.024     -87.395     140.519
  O      -61.693     -87.328     139.273
  O      -61.257     -87.156     136.703
  O      -59.356     -87.401     138.384
  H      -59.130     -86.557     137.952
  H      -61.507     -86.704     141.214
  H      -59.970     -87.119     140.416
  H      -61.098     -88.411     140.916
  H      -66.829     -87.376     141.583
  H      -67.193     -88.878     142.398
  H      -67.043     -88.843     140.658

 3  4  5  6  7  8  9  10  11  12  13  23  27  28  29  30  32 0
 6-311+G(2d,p)
 ****
 34  35 0
 6-311+G(2d,p)
 ****
 1  2  14  15  16  17  18  19  20  21  22  24  25  26 0
 3-21G
 ****
 31  33  36  37  38  39  40  41  42  43  44  45  46 0
 3-21G
 ****


