%nproc=1
%NoSave
%Mem=1900MB
#P OB98/GEN NMR

erre ene a

0 1
  C      101.267     157.149     -79.152
  O      100.673     156.382     -80.189
  P      100.889     156.858     -81.706
  C       98.778     158.361     -81.597
  O      100.174     158.289     -81.853
  C       97.974     158.295     -82.895
  O       96.557     158.303     -82.574
  C       98.227     159.458     -83.859
  O       98.093     158.946     -85.191
  C       97.073     160.400     -83.572
  O       96.830     161.302     -84.647
  C       95.957     159.391     -83.312
  N       91.830     162.399     -83.537
  C       92.700     161.999     -84.487
  N       93.777     161.195     -84.350
  C       93.914     160.799     -83.073
  C       93.124     161.155     -81.993
  C       92.030     161.996     -82.260
  N       91.134     162.397     -81.296
  N       93.596     160.571     -80.835
  C       94.651     159.876     -81.209
  N       94.865     159.965     -82.556
  O       99.928     155.873     -82.523
  O      102.292     156.786     -82.202
  H       96.271     162.030     -84.315
  H      100.463     155.260     -83.064
  H       92.506     162.365     -85.491
  H       95.286     159.300     -80.551
  H       95.545     158.981     -84.243
  H       97.291     160.992     -82.676
  H       99.204     159.938     -83.735
  H       98.188     157.337     -83.386
  H       98.561     159.309     -81.099
  H       90.303     162.885     -81.591
  H       91.165     161.952     -80.386
  H       98.486     157.543     -80.931
  P       99.405     158.957     -86.111
  C       98.843     161.269     -87.140
  O       99.758     160.492     -86.392
  O       98.871     158.424     -87.523
  O      100.524     158.115     -85.590
  H       99.594     157.984     -88.008
  H       98.872     162.300     -86.775
  H       97.819     160.892     -87.055
  H       99.140     161.258     -88.194
  H      101.035     156.709     -78.205
  H      100.885     158.148     -79.184
  H      102.328     157.168     -79.286

 3  4  5  6  7  8  9  10  11  12  22  25  29  30  31  32 0
 6-311+G(2d,p)
 ****
 33  36  37 0
 6-311+G(2d,p)
 ****
 1  2  13  14  15  16  17  18  19  20  21  23  24  26 0
 3-21G
 ****
 27  28  34  35  38  39  40  41  42  43  44  45  46  47  48 0
 3-21G
 ****


