%nproc=1
%NoSave
%Mem=1900MB
#P OB98/GEN NMR

erre ene a

0 1
  C     -350.301     165.414      57.834
  O     -350.686     164.426      58.776
  P     -350.482     164.758      60.328
  C     -348.804     163.652      61.991
  O     -349.003     164.266      60.718
  C     -347.428     162.978      62.049
  O     -347.465     161.757      61.255
  C     -346.262     163.837      61.528
  O     -345.112     163.504      62.332
  C     -346.110     163.320      60.108
  O     -344.870     163.665      59.511
  C     -346.348     161.835      60.329
  N     -344.536     158.642      56.754
  C     -343.995     159.103      57.911
  N     -344.545     159.945      58.814
  C     -345.788     160.301      58.432
  C     -346.455     159.923      57.286
  C     -345.784     159.049      56.409
  N     -346.322     158.585      55.237
  N     -347.702     160.526      57.229
  C     -347.778     161.245      58.321
  N     -346.656     161.126      59.102
  O     -351.411     163.670      61.059
  O     -350.832     166.157      60.734
  H     -344.914     163.546      58.544
  H     -351.863     164.067      61.832
  H     -342.979     158.753      58.139
  H     -348.620     161.869      58.612
  H     -345.487     161.330      60.807
  H     -346.882     163.762      59.485
  H     -346.467     164.918      61.601
  H     -347.252     162.674      63.086
  H     -349.568     162.896      62.141
  H     -345.690     158.126      54.590
  H     -347.160     159.062      54.899
  H     -348.914     164.413      62.774
  P     -343.962     164.620      62.535
  C     -341.739     165.032      61.315
  O     -343.008     164.414      61.258
  O     -343.107     163.951      63.697
  O     -344.443     166.017      62.806
  H     -342.877     163.030      63.501
  H     -341.150     164.727      60.438
  H     -341.196     164.723      62.219
  H     -341.853     166.125      61.304
  H     -350.493     165.057      56.844
  H     -349.257     165.622      57.942
  H     -350.862     166.309      58.006

 3  4  5  6  7  8  9  10  11  12  22  25  29  30  31  32 0
 6-311+G(2d,p)
 ****
 33  36  37 0
 6-311+G(2d,p)
 ****
 1  2  13  14  15  16  17  18  19  20  21  23  24  26 0
 3-21G
 ****
 27  28  34  35  38  39  40  41  42  43  44  45  46  47  48 0
 3-21G
 ****


