%nproc=1
%NoSave
%Mem=1900MB
#P OB98/GEN NMR

erre ene a

0 1
  C      643.545    -650.208     360.849
  O      643.998    -650.732     359.612
  H      643.262    -649.159     360.703
  H      644.348    -650.254     361.591
  H      642.669    -650.763     361.204
  P      644.384    -652.290     359.585
  C      646.933    -651.813     359.573
  O      645.828    -652.388     358.890
  C      648.255    -652.308     358.987
  O      648.315    -653.761     359.129
  C      648.444    -651.986     357.493
  O      649.842    -651.730     357.280
  C      648.091    -653.297     356.809
  O      648.650    -653.396     355.502
  C      648.656    -654.295     357.823
  N      648.920    -658.380     354.898
  C      649.631    -657.202     354.862
  N      650.567    -657.088     353.885
  N      649.464    -656.209     355.695
  C      648.511    -656.478     356.640
  C      647.738    -657.600     356.786
  C      647.935    -658.675     355.836
  O      647.304    -659.731     355.812
  N      646.871    -657.465     357.852
  C      647.138    -656.261     358.344
  N      648.123    -655.628     357.637
  O      643.387    -652.874     358.475
  O      644.249    -653.005     360.888
  H      648.397    -654.275     355.141
  H      642.575    -653.215     358.893
  H      649.082    -659.110     354.223
  H      646.642    -655.822     359.196
  H      649.750    -654.370     357.766
  H      646.997    -653.399     356.730
  H      650.799    -657.828     353.236
  H      647.852    -651.140     357.140
  H      651.141    -656.248     353.867
  H      649.084    -651.905     359.595
  H      646.875    -652.096     360.635
  H      646.877    -650.724     359.492
  P      650.340    -650.205     357.314
  C      649.827    -649.804     354.790
  O      650.799    -649.791     355.835
  O      651.737    -650.301     358.108
  O      649.395    -649.261     357.989
  H      651.923    -649.471     358.568
  H      650.287    -649.506     353.871
  H      649.036    -649.124     355.030
  H      649.429    -650.792     354.685

 6  7  8  9  10  11  12  13  14  15  26  29  33  34 0
 6-311+G(2d,p)
 ****
 36  38  39  40  41 0
 6-311+G(2d,p)
 ****
 1  2  3  4  5  16  17  18  19  20  21  22  23  24  25 0
 3-21G
 ****
 27  28  30  31  32  35  37  42  43  44  45  46  47 0
 3-21G
 ****
 48  49 0
 3-21G
 ****


