%nproc=1
%NoSave
%Mem=1900MB
#P OB98/GEN NMR

erre ene a

0 1
  C      117.230     -94.197     -15.555
  O      118.271     -95.150     -15.457
  H      117.464     -93.509     -16.373
  H      117.137     -93.624     -14.629
  H      116.283     -94.698     -15.780
  P      118.307     -96.102     -14.163
  C      119.651     -94.337     -12.843
  O      118.451     -95.106     -12.908
  C      119.652     -93.412     -11.626
  O      118.693     -92.346     -11.792
  C      119.253     -94.096     -10.326
  O      120.168     -95.062      -9.862
  C      118.912     -92.906      -9.440
  O      120.071     -92.320      -8.845
  C      118.293     -91.928     -10.468
  N      116.840     -91.844     -10.348
  C      116.357     -90.842      -9.514
  O      117.082     -90.069      -8.884
  N      114.994     -90.771      -9.397
  C      114.094     -91.611      -9.982
  O      112.883     -91.507      -9.819
  C      114.667     -92.679     -10.821
  C      115.994     -92.743     -10.965
  O      119.332     -97.196     -14.191
  O      116.802     -96.630     -14.034
  H      119.764     -91.564      -8.310
  H      116.747     -97.411     -13.429
  H      114.621     -90.040      -8.809
  H      113.984     -93.374     -11.288
  H      116.440     -93.520     -11.583
  H      118.701     -90.918     -10.326
  H      118.235     -93.179      -8.629
  H      118.310     -94.635     -10.495
  H      120.646     -92.958     -11.545
  H      119.710     -93.732     -13.755
  H      120.514     -95.011     -12.807
  P      119.748     -96.535      -9.413
  C      118.707     -95.609      -7.199
  O      118.548     -96.425      -8.354
  O      120.864     -97.486      -9.116
  O      118.986     -97.074     -10.731
  H      119.166     -98.036     -10.794
  H      117.817     -95.652      -6.607
  H      118.888     -94.598      -7.499
  H      119.536     -95.964      -6.623

 6  7  8  9  10  11  12  13  14  15  16  26  31  32  33  34  35 0
 6-311+G(2d,p)
 ****
 36  37 0
 6-311+G(2d,p)
 ****
 1  2  3  4  5  17  18  19  20  21  22  23  24  25 0
 3-21G
 ****
 27  28  29  30  38  39  40  41  42  43  44  45 0
 3-21G
 ****


