%nproc=1
%NoSave
%Mem=1900MB
#P OB98/GEN NMR

erre ene a

0 1
  C      187.995    -285.638    -113.201
  O      187.764    -284.629    -114.166
  H      187.443    -286.536    -113.492
  H      187.640    -285.307    -112.220
  H      189.062    -285.878    -113.151
  P      188.487    -283.219    -113.925
  C      190.284    -283.458    -115.785
  O      189.114    -282.781    -115.345
  C      190.265    -283.614    -117.308
  O      189.128    -284.445    -117.684
  C      190.139    -282.284    -118.072
  O      190.948    -282.354    -119.255
  C      188.672    -282.255    -118.473
  O      188.442    -281.412    -119.600
  C      188.418    -283.737    -118.725
  N      184.145    -283.338    -121.366
  C      185.436    -282.952    -121.677
  N      185.621    -282.367    -122.886
  N      186.456    -283.121    -120.883
  C      186.135    -283.750    -119.720
  C      184.900    -284.167    -119.284
  C      183.773    -283.952    -120.166
  O      182.603    -284.255    -119.935
  N      184.982    -284.728    -118.027
  C      186.263    -284.641    -117.709
  N      187.003    -284.063    -118.707
  O      189.780    -283.602    -113.058
  O      187.653    -282.174    -113.259
  H      187.474    -281.299    -119.696
  H      190.034    -282.871    -112.466
  H      183.392    -283.173    -122.006
  H      186.700    -284.979    -116.781
  H      188.809    -284.068    -119.695
  H      188.062    -281.890    -117.637
  H      184.886    -282.232    -123.564
  H      190.428    -281.409    -117.483
  H      186.564    -282.088    -123.140
  H      191.164    -284.159    -117.614
  H      190.321    -284.448    -115.321
  H      191.164    -282.884    -115.481
  P      191.661    -281.005    -119.752
  C      194.042    -280.742    -118.737
  O      193.247    -281.254    -119.803
  O      191.481    -280.028    -118.487
  O      191.056    -280.420    -120.986
  H      190.819    -279.333    -118.706
  H      195.070    -280.985    -118.910
  H      193.723    -281.178    -117.813
  H      193.930    -279.679    -118.687

 6  7  8  9  10  11  12  13  14  15  26  29  33  34 0
 6-311+G(2d,p)
 ****
 36  38  39  40  41 0
 6-311+G(2d,p)
 ****
 1  2  3  4  5  16  17  18  19  20  21  22  23  24  25 0
 3-21G
 ****
 27  28  30  31  32  35  37  42  43  44  45  46  47 0
 3-21G
 ****
 48  49 0
 3-21G
 ****


