%nproc=1
%NoSave
%Mem=1900MB
#P OB98/GEN NMR

erre ene a

0 1
  C      -46.780       5.088    -112.279
  O      -47.898       5.951    -112.232
  H      -46.883       4.335    -111.494
  H      -45.860       5.653    -112.107
  H      -46.733       4.583    -113.248
  P      -47.922       7.150    -113.299
  C      -49.146       5.962    -115.253
  O      -49.228       6.915    -114.203
  C      -50.445       5.169    -115.353
  O      -50.649       4.370    -114.167
  C      -51.694       6.025    -115.522
  O      -51.881       6.398    -116.877
  C      -52.773       5.076    -115.019
  O      -53.156       4.126    -116.034
  C      -52.066       4.374    -113.852
  N      -55.535       5.427    -110.340
  C      -55.644       4.708    -111.512
  N      -56.876       4.245    -111.819
  N      -54.643       4.473    -112.316
  C      -53.480       5.025    -111.895
  C      -53.241       5.743    -110.747
  C      -54.354       5.969    -109.850
  O      -54.309       6.541    -108.766
  N      -51.926       6.120    -110.662
  C      -51.380       5.664    -111.773
  N      -52.287       5.007    -112.563
  O      -46.719       6.788    -114.293
  O      -47.770       8.518    -112.728
  H      -52.381       3.592    -116.280
  H      -46.338       7.614    -114.646
  H      -56.340       5.559    -109.754
  H      -50.342       5.784    -112.049
  H      -52.379       3.329    -113.749
  H      -53.681       5.612    -114.737
  H      -57.711       4.666    -111.435
  H      -51.653       6.906    -114.871
  H      -56.969       3.737    -112.689
  H      -50.340       4.473    -116.197
  H      -48.319       5.275    -115.046
  H      -48.949       6.482    -116.197
  P      -52.446       7.871    -117.173
  C      -50.200       9.170    -117.359
  O      -51.322       8.621    -118.037
  O      -52.357       8.595    -115.748
  O      -53.826       7.908    -117.737
  H      -52.918       9.393    -115.744
  H      -49.546       9.633    -118.068
  H      -49.676       8.390    -116.847
  H      -50.533       9.900    -116.651

 6  7  8  9  10  11  12  13  14  15  26  29  33  34 0
 6-311+G(2d,p)
 ****
 36  38  39  40  41 0
 6-311+G(2d,p)
 ****
 1  2  3  4  5  16  17  18  19  20  21  22  23  24  25 0
 3-21G
 ****
 27  28  30  31  32  35  37  42  43  44  45  46  47 0
 3-21G
 ****
 48  49 0
 3-21G
 ****


