%nproc=1
%NoSave
%Mem=1900MB
#P OB98/GEN NMR

erre ene a

0 1
  C     -141.050    -823.361     123.267
  O     -142.158    -822.686     123.844
  P     -141.896    -821.221     124.453
  C     -139.873    -820.354     125.841
  O     -140.795    -821.416     125.594
  C     -138.756    -820.813     126.771
  O     -137.999    -821.864     126.149
  C     -137.753    -819.726     127.118
  O     -138.292    -818.853     128.097
  C     -136.574    -820.556     127.605
  O     -136.700    -820.864     129.011
  C     -136.676    -821.834     126.745
  N     -135.634    -821.911     125.739
  C     -134.493    -822.644     126.100
  O     -134.411    -823.143     127.220
  N     -133.465    -822.743     125.196
  C     -133.564    -822.160     124.037
  N     -132.517    -822.302     123.182
  C     -134.739    -821.371     123.624
  C     -135.726    -821.283     124.514
  O     -143.236    -820.931     125.276
  O     -141.602    -820.169     123.439
  H     -135.943    -821.447     129.214
  H     -143.394    -819.962     125.344
  H     -134.773    -820.911     122.652
  H     -136.624    -820.717     124.300
  H     -136.610    -822.726     127.375
  H     -135.626    -820.024     127.488
  H     -137.471    -819.163     126.222
  H     -139.222    -821.227     127.686
  H     -131.719    -822.843     123.495
  H     -140.406    -819.520     126.311
  H     -132.505    -821.907     122.249
  H     -139.468    -820.015     124.879
  P     -137.466    -817.528     128.442
  C     -135.165    -817.064     129.463
  O     -136.102    -818.050     129.099
  O     -138.259    -816.955     129.716
  O     -137.330    -816.508     127.358
  H     -137.900    -816.086     129.964
  H     -134.357    -817.529     130.037
  H     -135.638    -816.293     130.088
  H     -134.734    -816.601     128.566
  H     -141.364    -824.317     122.904
  H     -140.288    -823.493     124.007
  H     -140.662    -822.781     122.455

 3  4  5  6  7  8  9  10  11  12  13  21  23  27  28  29  30  32 0
 6-311+G(2d,p)
 ****
 34  35 0
 6-311+G(2d,p)
 ****
 1  2  14  15  16  17  18  19  20  22  24  25  26 0
 3-21G
 ****
 31  33  36  37  38  39  40  41  42  43  44  45  46 0
 3-21G
 ****


