%nproc=1
%NoSave
%Mem=1900MB
#P OB98/GEN NMR

erre ene a

0 1
  C      542.688    -364.374      80.135
  O      543.831    -363.723      80.703
  P      544.854    -364.628      81.551
  C      546.970    -363.897      80.193
  O      546.281    -363.898      81.436
  C      548.313    -363.173      80.324
  O      548.090    -361.725      80.415
  C      549.144    -363.594      81.543
  O      550.522    -363.589      81.127
  C      548.889    -362.478      82.531
  O      549.915    -362.381      83.515
  C      548.797    -361.272      81.583
  N      548.129    -360.120      82.192
  C      548.820    -359.450      83.200
  O      549.905    -359.836      83.642
  N      548.198    -358.353      83.722
  C      546.947    -357.915      83.406
  O      546.434    -356.922      83.913
  C      546.219    -358.725      82.423
  C      546.826    -359.778      81.872
  O      544.981    -365.916      80.618
  O      544.373    -364.893      82.941
  H      544.973    -365.712      79.663
  H      549.730    -363.039      84.223
  H      548.691    -357.833      84.437
  H      545.197    -358.444      82.184
  H      546.315    -360.412      81.157
  H      549.795    -360.952      81.269
  H      547.934    -362.635      83.039
  H      548.872    -364.583      81.924
  H      548.884    -363.354      79.397
  H      546.363    -363.383      79.436
  H      547.098    -364.923      79.851
  P      551.506    -364.698      81.748
  C      553.263    -364.114      79.897
  O      552.987    -364.340      81.263
  O      551.117    -365.965      80.834
  O      551.317    -364.964      83.203
  H      551.089    -365.745      79.884
  H      554.247    -363.657      79.803
  H      552.520    -363.451      79.440
  H      553.265    -365.075      79.357
  H      542.098    -363.658      79.602
  H      542.100    -364.809      80.916
  H      543.012    -365.141      79.463

 3  4  5  6  7  8  9  10  11  12  13  24  28  29  30  31  32 0
 6-311+G(2d,p)
 ****
 33  34 0
 6-311+G(2d,p)
 ****
 1  2  14  15  16  17  18  19  20  21  22  23  25  26  27 0
 3-21G
 ****
 35  36  37  38  39  40  41  42  43  44  45 0
 3-21G
 ****


