%nproc=1
%NoSave
%Mem=1900MB
#P OB98/GEN NMR

erre ene a

0 1
  C      428.013     -61.091    -856.942
  O      428.217     -61.741    -858.180
  H      428.626     -60.189    -856.920
  H      428.324     -61.749    -856.128
  H      426.966     -60.810    -856.810
  P      427.190     -62.879    -858.629
  C      428.098     -65.179    -857.860
  O      427.279     -64.056    -857.539
  C      428.016     -66.251    -856.770
  O      426.659     -66.760    -856.694
  C      428.920     -67.433    -857.121
  O      429.395     -68.112    -855.958
  C      427.988     -68.362    -857.886
  O      428.428     -69.717    -857.898
  C      426.677     -68.138    -857.135
  N      423.834     -71.632    -859.532
  C      425.061     -71.775    -858.916
  N      425.616     -73.003    -858.962
  N      425.697     -70.788    -858.322
  C      425.061     -69.599    -858.416
  C      423.850     -69.330    -859.025
  C      423.138     -70.425    -859.641
  O      422.055     -70.351    -860.209
  N      423.532     -67.992    -858.924
  C      424.545     -67.463    -858.279
  N      425.491     -68.404    -857.930
  O      427.889     -63.546    -859.913
  O      425.797     -62.424    -858.945
  H      427.775     -70.230    -858.405
  H      427.229     -63.958    -860.486
  H      423.386     -72.415    -859.961
  H      424.645     -66.406    -858.026
  H      426.626     -68.778    -856.248
  H      427.952     -68.018    -858.931
  H      425.252     -73.738    -859.558
  H      429.774     -67.132    -857.722
  H      426.625     -73.066    -858.791
  H      428.241     -65.818    -855.787
  H      429.130     -64.811    -857.949
  H      427.811     -65.591    -858.830
  P      430.680     -67.495    -855.212
  C      432.552     -68.435    -856.809
  O      431.829     -67.310    -856.319
  O      431.197     -68.703    -854.305
  O      430.382     -66.273    -854.419
  H      430.978     -68.542    -853.372
  H      433.269     -68.110    -857.534
  H      431.872     -69.125    -857.263
  H      433.058     -68.915    -855.997

 6  7  8  9  10  11  12  13  14  15  26  29  33  34 0
 6-311+G(2d,p)
 ****
 36  38  39  40  41 0
 6-311+G(2d,p)
 ****
 1  2  3  4  5  16  17  18  19  20  21  22  23  24  25 0
 3-21G
 ****
 27  28  30  31  32  35  37  42  43  44  45  46  47 0
 3-21G
 ****
 48  49 0
 3-21G
 ****


