%nproc=1
%NoSave
%Mem=1900MB
#P OB98/GEN NMR

erre ene a

0 1
  C      144.141    -934.662     913.370
  O      143.834    -935.208     912.112
  H      143.212    -934.375     913.871
  H      144.763    -933.775     913.254
  H      144.657    -935.396     913.997
  P      145.038    -935.850     911.263
  C      143.986    -938.215     910.998
  O      145.028    -937.436     911.580
  C      144.027    -939.636     911.563
  O      143.571    -939.618     912.945
  C      143.131    -940.628     910.789
  O      143.807    -941.888     910.717
  C      141.897    -940.758     911.673
  O      141.201    -941.989     911.467
  C      142.496    -940.565     913.067
  N      141.484    -940.111     914.016
  C      140.478    -941.035     914.367
  O      140.474    -942.153     913.872
  N      139.485    -940.640     915.231
  C      139.437    -939.403     915.632
  N      138.401    -939.062     916.445
  C      140.427    -938.381     915.231
  C      141.416    -938.797     914.443
  O      146.344    -935.345     912.030
  O      145.055    -935.505     909.810
  H      140.661    -942.171     912.275
  H      147.092    -935.221     911.421
  H      140.330    -937.358     915.568
  H      142.189    -938.120     914.096
  H      142.923    -941.501     913.433
  H      141.196    -939.941     911.432
  H      142.893    -940.284     909.773
  H      145.071    -939.984     911.566
  H      137.729    -939.781     916.690
  H      144.133    -938.265     909.909
  H      138.239    -938.115     916.789
  H      143.014    -937.742     911.204
  P      144.634    -942.200     909.381
  C      146.937    -941.750     910.513
  O      146.036    -941.424     909.463
  O      143.815    -941.409     908.259
  O      144.738    -943.669     909.063
  H      143.341    -942.027     907.678
  H      147.818    -941.149     910.427
  H      147.203    -942.784     910.446
  H      146.468    -941.563     911.456

 6  7  8  9  10  11  12  13  14  15  16  26  30  31  32  33  35 0
 6-311+G(2d,p)
 ****
 37  38 0
 6-311+G(2d,p)
 ****
 1  2  3  4  5  17  18  19  20  21  22  23  24  25 0
 3-21G
 ****
 27  28  29  34  36  39  40  41  42  43  44  45  46 0
 3-21G
 ****


