%nproc=1
%NoSave
%Mem=1900MB
#P OB98/GEN NMR

erre ene a

0 1
  C     -112.418     -23.787     -72.711
  O     -111.340     -24.145     -71.864
  P     -111.502     -25.460     -70.955
  C     -112.098     -23.960     -68.911
  O     -112.458     -25.059     -69.731
  C     -113.095     -23.800     -67.760
  O     -114.413     -23.572     -68.321
  C     -113.202     -25.012     -66.829
  O     -113.500     -24.508     -65.520
  C     -114.406     -25.757     -67.373
  O     -114.991     -26.633     -66.415
  C     -115.292     -24.592     -67.797
  N     -120.202     -24.813     -68.995
  C     -119.596     -24.436     -67.809
  N     -120.417     -24.003     -66.830
  N     -118.305     -24.480     -67.607
  C     -117.613     -24.920     -68.684
  C     -118.098     -25.356     -69.893
  C     -119.523     -25.267     -70.119
  O     -120.094     -25.507     -71.180
  N     -117.093     -25.811     -70.705
  C     -115.995     -25.574     -70.017
  N     -116.254     -24.991     -68.805
  O     -110.061     -25.604     -70.279
  O     -111.924     -26.699     -71.680
  H     -115.723     -27.112     -66.854
  H     -109.489     -26.206     -70.794
  H     -121.200     -24.740     -69.100
  H     -114.991     -25.795     -70.345
  H     -115.853     -24.162     -66.956
  H     -114.106     -26.360     -68.240
  H     -121.416     -23.915     -66.928
  H     -112.298     -25.627     -66.804
  H     -119.997     -23.690     -65.962
  H     -112.823     -22.902     -67.192
  H     -112.113     -23.047     -69.516
  H     -111.083     -24.103     -68.528
  P     -112.697     -25.126     -64.278
  C     -114.736     -26.461     -63.403
  O     -113.406     -26.503     -63.880
  O     -113.095     -24.145     -63.074
  O     -111.214     -25.175     -64.453
  H     -112.352     -24.078     -62.447
  H     -115.196     -27.440     -63.558
  H     -115.329     -25.706     -63.929
  H     -114.732     -26.238     -62.333
  H     -112.168     -22.898     -73.251
  H     -113.293     -23.611     -72.120
  H     -112.608     -24.582     -73.402

 3  4  5  6  7  8  9  10  11  12  23  26  30  31 0
 6-311+G(2d,p)
 ****
 33  35  36  37  38 0
 6-311+G(2d,p)
 ****
 1  2  13  14  15  16  17  18  19  20  21  22  24  25 0
 3-21G
 ****
 27  28  29  32  34  39  40  41  42  43  44  45  46  47  48  49 0
 3-21G
 ****


