%nproc=1
%NoSave
%Mem=1900MB
#P OB98/GEN NMR

erre ene a

0 1
  C     -108.760    -476.914    -277.684
  O     -108.022    -475.753    -277.303
  P     -108.207    -474.458    -278.239
  C     -106.078    -474.766    -279.691
  O     -107.503    -474.773    -279.647
  C     -105.572    -474.414    -281.095
  O     -104.117    -474.289    -281.097
  C     -105.942    -475.453    -282.165
  O     -106.180    -474.725    -283.379
  C     -104.668    -476.274    -282.263
  O     -104.607    -477.075    -283.436
  C     -103.632    -475.168    -282.150
  N      -98.836    -475.425    -283.881
  C      -99.965    -474.886    -284.404
  N     -101.205    -474.864    -283.885
  C     -101.221    -475.465    -282.681
  C     -100.159    -476.056    -282.013
  C      -98.912    -476.018    -282.664
  N      -97.766    -476.576    -282.142
  N     -100.579    -476.596    -280.803
  C     -101.887    -476.389    -280.789
  N     -102.298    -475.640    -281.852
  O     -107.251    -473.366    -277.560
  O     -109.622    -473.992    -278.340
  H     -105.286    -477.776    -283.391
  H     -107.770    -472.755    -277.006
  H      -99.844    -474.420    -285.381
  H     -102.566    -476.758    -280.037
  H     -103.564    -474.566    -283.069
  H     -104.607    -476.952    -281.401
  H     -106.833    -476.040    -281.916
  H     -105.982    -473.430    -281.368
  H     -105.692    -475.748    -279.405
  H      -96.919    -476.506    -282.687
  H      -97.782    -477.042    -281.248
  H     -105.698    -474.057    -278.941
  P     -107.681    -474.589    -283.921
  C     -107.552    -476.368    -285.769
  O     -108.039    -476.056    -284.478
  O     -107.430    -473.788    -285.287
  O     -108.662    -473.948    -283.000
  H     -106.731    -474.209    -285.824
  H     -107.792    -477.414    -285.998
  H     -106.468    -476.241    -285.808
  H     -108.029    -475.730    -286.522
  H     -108.560    -477.706    -276.994
  H     -108.467    -477.216    -278.668
  H     -109.806    -476.690    -277.676

 3  4  5  6  7  8  9  10  11  12  22  25  29  30  31  32 0
 6-311+G(2d,p)
 ****
 33  36  37 0
 6-311+G(2d,p)
 ****
 1  2  13  14  15  16  17  18  19  20  21  23  24  26 0
 3-21G
 ****
 27  28  34  35  38  39  40  41  42  43  44  45  46  47  48 0
 3-21G
 ****


