%nproc=1
%NoSave
%Mem=1900MB
#P OB98/GEN NMR

erre ene a

0 1
  C      -96.557    -235.452      32.661
  O      -95.288    -235.053      33.125
  H      -97.068    -234.575      32.252
  H      -97.159    -235.846      33.483
  H      -96.462    -236.201      31.872
  P      -94.329    -236.138      33.821
  C      -93.263    -234.568      35.548
  O      -93.058    -235.301      34.349
  C      -92.369    -233.328      35.595
  O      -90.974    -233.733      35.554
  C      -92.601    -232.354      34.429
  O      -92.703    -231.018      34.926
  C      -91.339    -232.492      33.592
  O      -91.070    -231.342      32.795
  C      -90.306    -232.807      34.678
  N      -89.076    -233.355      34.122
  C      -87.914    -233.142      34.870
  O      -87.966    -232.528      35.936
  N      -86.716    -233.580      34.369
  C      -86.674    -234.138      33.200
  N      -85.450    -234.523      32.748
  C      -87.873    -234.358      32.364
  C      -89.030    -233.950      32.884
  O      -94.000    -237.316      32.968
  O      -95.076    -236.535      35.179
  H      -91.818    -231.215      32.170
  H      -94.753    -237.417      35.475
  H      -87.783    -234.823      31.395
  H      -89.963    -234.067      32.344
  H      -90.059    -231.908      35.258
  H      -91.444    -233.353      32.917
  H      -93.494    -232.586      33.848
  H      -92.515    -232.830      36.562
  H      -84.654    -234.346      33.351
  H      -93.052    -235.224      36.401
  H      -85.291    -234.945      31.846
  H      -94.310    -234.253      35.587
  P      -93.864    -230.112      34.291
  C      -92.583    -227.869      34.536
  O      -93.725    -228.633      34.897
  O      -95.195    -230.686      34.972
  O      -93.931    -230.189      32.802
  H      -95.728    -231.160      34.306
  H      -92.628    -226.912      35.013
  H      -92.563    -227.737      33.474
  H      -91.697    -228.382      34.849

 6  7  8  9  10  11  12  13  14  15  16  26  30  31  32  33  35 0
 6-311+G(2d,p)
 ****
 37  38 0
 6-311+G(2d,p)
 ****
 1  2  3  4  5  17  18  19  20  21  22  23  24  25 0
 3-21G
 ****
 27  28  29  34  36  39  40  41  42  43  44  45  46 0
 3-21G
 ****


