%nproc=1
%NoSave
%Mem=1900MB
#P OB98/GEN NMR

erre ene a

0 1
  C     -131.950     627.779     113.761
  O     -133.313     627.508     114.007
  H     -131.635     627.219     112.877
  H     -131.337     627.452     114.605
  H     -131.794     628.846     113.577
  P     -134.029     628.169     115.282
  C     -134.926     625.883     116.039
  O     -135.272     627.199     115.620
  C     -135.567     624.832     115.134
  O     -134.862     624.785     113.863
  C     -135.548     623.415     115.723
  O     -136.837     622.806     115.582
  C     -134.541     622.674     114.852
  O     -134.746     621.263     114.835
  C     -134.743     623.391     113.511
  N     -133.642     623.146     112.588
  C     -133.697     621.941     111.875
  O     -134.643     621.170     112.033
  N     -132.659     621.618     111.040
  C     -131.627     622.406     110.962
  N     -130.618     622.014     110.133
  C     -131.516     623.673     111.719
  C     -132.546     623.974     112.505
  O     -134.380     629.612     115.123
  O     -133.031     627.894     116.504
  H     -133.941     620.840     114.457
  H     -133.210     628.550     117.216
  H     -130.630     624.285     111.622
  H     -132.554     624.887     113.107
  H     -135.678     623.080     113.032
  H     -133.527     622.861     115.230
  H     -135.261     623.389     116.775
  H     -136.594     625.148     114.901
  H     -130.739     621.137     109.637
  H     -135.257     625.748     117.075
  H     -129.765     622.526     110.012
  H     -133.836     625.779     115.994
  P     -137.454     622.118     116.893
  C     -138.864     620.209     115.844
  O     -138.870     621.471     116.496
  O     -137.841     623.362     117.821
  O     -136.501     621.194     117.579
  H     -137.240     623.401     118.591
  H     -139.871     619.907     115.643
  H     -138.393     619.484     116.474
  H     -138.324     620.286     114.923

 6  7  8  9  10  11  12  13  14  15  16  26  30  31  32  33  35 0
 6-311+G(2d,p)
 ****
 37  38 0
 6-311+G(2d,p)
 ****
 1  2  3  4  5  17  18  19  20  21  22  23  24  25 0
 3-21G
 ****
 27  28  29  34  36  39  40  41  42  43  44  45  46 0
 3-21G
 ****


