%nproc=1
%NoSave
%Mem=1900MB
#P OB98/GEN NMR

erre ene a

0 1
  C     -240.895     548.993     338.021
  O     -241.443     549.549     336.819
  P     -240.421     549.713     335.577
  C     -241.660     549.018     333.388
  O     -241.296     550.061     334.286
  C     -242.713     549.493     332.398
  O     -243.992     549.668     333.048
  C     -242.412     550.852     331.761
  O     -241.476     550.726     330.698
  C     -243.780     551.241     331.237
  O     -244.010     550.592     329.955
  C     -244.746     550.656     332.307
  N     -247.266     555.015     332.763
  C     -246.971     554.295     331.640
  N     -247.466     554.778     330.455
  N     -246.296     553.173     331.646
  C     -245.897     552.794     332.894
  C     -246.137     553.453     334.093
  C     -246.873     554.682     334.056
  O     -247.137     555.399     335.016
  N     -245.606     552.747     335.147
  C     -245.063     551.675     334.608
  N     -245.213     551.657     333.228
  O     -239.953     548.195     335.293
  O     -239.260     550.613     335.861
  H     -244.871     550.919     329.610
  H     -239.070     548.181     334.888
  H     -247.814     555.870     332.691
  H     -244.578     550.883     335.144
  H     -245.593     550.160     331.840
  H     -243.889     552.310     331.067
  H     -248.053     555.573     330.384
  H     -242.094     551.567     332.518
  H     -247.276     554.216     329.626
  H     -242.816     548.726     331.616
  H     -242.036     548.165     333.951
  H     -240.747     548.682     332.875
  P     -240.022     551.401     330.919
  C     -238.976     549.423     329.567
  O     -239.126     550.824     329.728
  O     -239.480     550.636     332.210
  O     -240.038     552.868     331.092
  H     -238.858     551.192     332.699
  H     -239.955     548.918     329.702
  H     -238.268     549.050     330.312
  H     -238.607     549.213     328.562
  H     -241.660     548.933     338.767
  H     -240.101     549.618     338.373
  H     -240.516     548.013     337.820

 3  4  5  6  7  8  9  10  11  12  23  26  30  31  33  0
 6-311+G(2d,p)
 ****
 35  36  37  38 0
 6-311+G(2d,p)
 ****
 1  2  13  14  15  16  17  18  19  20  21  22  24  25  27  28  29 0
 3-21G
 ****
 32  34  39  40  41  42  43  44  45  46  47  48  49 0
 3-21G
 ****


