%nproc=1
%NoSave
%Mem=1900MB
#P OB98/GEN NMR

erre ene a

0 1
  C      391.846    -721.563     791.790
  O      390.813    -721.564     790.840
  P      390.043    -722.939     790.487
  C      388.997    -721.911     788.359
  O      389.791    -722.972     788.905
  C      388.654    -722.186     786.897
  O      389.858    -722.124     786.080
  C      388.068    -723.562     786.650
  O      386.730    -723.651     787.093
  C      388.246    -723.670     785.136
  O      387.204    -722.970     784.434
  C      389.604    -722.967     784.925
  N      390.692    -723.908     784.704
  C      390.814    -724.413     783.411
  O      389.968    -724.131     782.546
  N      391.870    -725.237     783.117
  C      392.682    -725.617     784.076
  N      393.739    -726.396     783.740
  C      392.483    -725.230     785.490
  C      391.497    -724.363     785.742
  O      388.835    -723.236     791.316
  O      391.166    -724.073     790.686
  H      390.790    -724.775     791.249
  H      387.327    -723.183     783.470
  H      393.131    -725.635     786.254
  H      391.289    -724.006     786.720
  H      389.547    -722.275     784.061
  H      388.227    -724.712     784.789
  H      388.681    -724.322     787.137
  H      387.964    -721.402     786.553
  H      393.848    -726.639     782.753
  H      389.557    -720.983     788.448
  H      394.575    -726.459     784.308
  H      388.078    -721.809     788.961
  P      386.504    -724.291     788.549
  C      383.967    -724.718     788.270
  O      385.252    -725.281     788.453
  O      385.944    -723.057     789.407
  O      387.742    -724.874     789.173
  H      386.308    -723.097     790.324
  H      383.297    -725.485     787.862
  H      384.011    -723.908     787.527
  H      383.567    -724.343     789.197
  H      392.236    -720.572     791.892
  H      392.626    -722.221     791.469
  H      391.464    -721.895     792.733

 3  4  5  6  7  8  9  10  11  12  13  24  27  28  29  30  32 0
 6-311+G(2d,p)
 ****
 34  35 0
 6-311+G(2d,p)
 ****
 1  2  14  15  16  17  18  19  20  21  22  23  25  26 0
 3-21G
 ****
 31  33  36  37  38  39  40  41  42  43  44  45  46 0
 3-21G
 ****


