%nproc=1
%NoSave
%Mem=1900MB
#P OB98/GEN NMR

erre ene a

0 1
  C        3.200      12.281      24.115
  O        2.383      13.007      23.217
  H        3.960      12.953      24.518
  H        3.696      11.459      23.592
  H        2.598      11.892      24.940
  P        1.179      12.197      22.530
  C        1.172       9.845      21.449
  O        1.909      11.033      21.703
  C        2.112       8.702      21.077
  O        2.868       8.273      22.223
  C        1.409       7.456      20.554
  O        1.070       7.602      19.185
  C        2.496       6.411      20.757
  O        3.459       6.496      19.688
  C        3.143       6.854      22.082
  N        4.482       3.939      26.087
  C        5.168       4.328      24.992
  N        4.737       5.066      23.948
  C        3.449       5.411      24.108
  C        2.622       5.088      25.173
  C        3.190       4.322      26.204
  N        2.489       3.936      27.325
  N        1.361       5.616      24.990
  C        1.442       6.291      23.862
  N        2.674       6.168      23.271
  O        0.189      13.020      21.784
  O        0.591      11.401      23.790
  H        4.172       5.860      19.884
  H        1.311      11.099      24.370
  H        6.204       4.005      24.948
  H        0.648       6.895      23.440
  H        4.232       6.731      22.061
  H        2.101       5.393      20.748
  H        0.544       7.196      21.171
  H        2.829       9.085      20.340
  H        0.448      10.009      20.644
  H        2.917       3.250      27.928
  H        1.496       4.117      27.350
  H        0.622       9.599      22.363
  P       -0.365       7.139      18.645
  C       -1.350       4.863      17.965
  O       -0.417       5.541      18.797
  O       -0.722       7.643      17.290
  O       -1.395       7.641      19.757
  H       -2.218       7.961      19.339
  H       -1.296       3.811      18.152
  H       -1.118       5.055      16.938
  H       -2.338       5.213      18.179

 6  7  8  9  10  11  12  13  14  15  25  28  32  33  34  35 0
 6-311+G(2d,p)
 ****
 36  39  40 0
 6-311+G(2d,p)
 ****
 1  2  3  4  5  16  17  18  19  20  21  22  23  24 0
 3-21G
 ****
 26  27  29  30  31  37  38  41  42  43  44  45  46  47 0
 3-21G
 ****
 48 0
 3-21G
 ****


