%nproc=1
%NoSave
%Mem=1900MB
#P OB98/GEN NMR

erre ene a

0 1
  C     -244.537     103.807    -198.769
  O     -244.367     105.108    -198.202
  P     -243.602     105.244    -196.796
  C     -245.835     105.560    -195.542
  O     -244.540     106.091    -195.801
  C     -246.433     106.176    -194.280
  O     -245.591     105.954    -193.126
  C     -246.606     107.687    -194.370
  O     -247.705     108.022    -195.202
  C     -246.762     108.060    -192.899
  O     -248.114     107.854    -192.458
  C     -245.813     107.046    -192.212
  N     -244.561     107.642    -191.771
  C     -244.408     107.797    -190.391
  O     -245.314     107.473    -189.620
  N     -243.232     108.325    -189.918
  C     -242.296     108.684    -190.748
  N     -241.151     109.198    -190.217
  C     -242.426     108.551    -192.216
  C     -243.575     108.040    -192.648
  O     -242.180     105.702    -196.878
  O     -243.699     103.761    -196.195
  H     -248.141     108.169    -191.530
  H     -242.920     103.601    -195.631
  H     -241.619     108.852    -192.867
  H     -243.758     107.905    -193.716
  H     -246.307     106.612    -191.326
  H     -246.519     109.112    -192.722
  H     -245.686     108.133    -194.771
  H     -247.409     105.697    -194.094
  H     -241.094     109.289    -189.218
  H     -245.764     104.470    -195.431
  H     -240.351     109.459    -190.782
  H     -246.473     105.740    -196.413
  P     -247.395     108.360    -196.739
  C     -245.858     110.358    -196.102
  O     -246.993     109.911    -196.821
  O     -248.850     108.323    -197.417
  O     -246.459     107.407    -197.414
  H     -248.771     107.991    -198.328
  H     -245.539     111.320    -196.506
  H     -245.030     109.647    -196.189
  H     -246.124     110.480    -195.048
  H     -245.062     103.889    -199.698
  H     -245.099     103.195    -198.095
  H     -243.578     103.364    -198.939

 3  4  5  6  7  8  9  10  11  12  13  23  27  28  29  30  32 0
 6-311+G(2d,p)
 ****
 34  35 0
 6-311+G(2d,p)
 ****
 1  2  14  15  16  17  18  19  20  21  22  24  25  26 0
 3-21G
 ****
 31  33  36  37  38  39  40  41  42  43  44  45  46 0
 3-21G
 ****


