%nproc=1
%NoSave
%Mem=1900MB
#P OB98/GEN NMR

erre ene a

0 1
  C      502.481     223.780      26.517
  O      502.918     224.282      27.791
  P      504.485     224.561      27.992
  C      505.258     222.732      29.679
  O      505.202     223.170      28.325
  C      506.045     221.425      29.801
  O      505.343     220.305      29.244
  C      507.395     221.471      29.094
  O      508.386     222.114      29.882
  C      507.689     219.982      28.954
  O      508.224     219.472      30.204
  C      506.316     219.384      28.687
  N      505.214     215.928      25.062
  C      505.465     215.797      26.384
  N      505.779     216.766      27.286
  C      505.782     217.976      26.696
  C      505.533     218.252      25.358
  C      505.225     217.179      24.518
  N      504.958     217.307      23.167
  N      505.626     219.613      25.107
  C      505.920     220.145      26.287
  N      506.023     219.194      27.278
  O      504.550     225.353      29.380
  O      505.105     225.351      26.878
  H      507.511     219.582      30.880
  H      505.275     226.016      29.350
  H      505.429     214.785      26.774
  H      506.059     221.201      26.489
  H      506.169     218.410      29.187
  H      508.462     219.770      28.186
  H      507.294     221.931      28.091
  H      506.206     221.224      30.886
  H      504.245     222.589      30.078
  H      504.717     216.478      22.644
  H      504.942     218.232      22.770
  H      505.711     223.524      30.309
  P      508.819     223.593      29.460
  C      510.685     222.803      27.842
  O      509.468     223.479      27.986
  O      510.059     223.895      30.405
  O      507.741     224.613      29.612
  H      510.121     224.856      30.604
  H      510.828     222.537      26.788
  H      510.727     221.870      28.429
  H      511.513     223.444      28.160
  H      501.420     223.644      26.532
  H      502.958     222.843      26.320
  H      502.740     224.480      25.750

 3  4  5  6  7  8  9  10  11  12  22  25  29  30  31  32 0
 6-311+G(2d,p)
 ****
 33  36  37 0
 6-311+G(2d,p)
 ****
 1  2  13  14  15  16  17  18  19  20  21  23  24  26 0
 3-21G
 ****
 27  28  34  35  38  39  40  41  42  43  44  45  46  47  48 0
 3-21G
 ****


