%nproc=1
%NoSave
%Mem=1900MB
#P OB98/GEN NMR

erre ene a

0 1
  C      169.834     317.163     -74.238
  O      171.193     316.752     -74.291
  P      171.486     315.174     -74.376
  C      171.523     315.076     -71.785
  O      172.213     314.796     -72.997
  C      172.416     314.795     -70.584
  O      172.539     313.373     -70.388
  C      173.842     315.309     -70.721
  O      173.937     316.694     -70.424
  C      174.557     314.475     -69.668
  O      174.365     315.063     -68.369
  C      173.822     313.127     -69.761
  N      176.477     308.819     -69.564
  C      175.888     309.543     -68.545
  N      176.001     309.031     -67.301
  N      175.249     310.668     -68.732
  C      175.181     311.038     -70.032
  C      175.725     310.406     -71.129
  C      176.474     309.189     -70.903
  O      177.072     308.540     -71.757
  N      175.431     311.077     -72.286
  C      174.682     312.090     -71.899
  N      174.527     312.126     -70.535
  O      172.667     315.083     -75.453
  O      170.317     314.332     -74.761
  H      173.407     315.222     -68.266
  H      172.662     314.203     -75.877
  H      176.941     307.951     -69.369
  H      174.236     312.814     -72.566
  H      173.618     312.717     -68.765
  H      175.638     314.412     -69.833
  H      176.363     308.110     -67.115
  H      174.251     315.081     -71.710
  H      175.544     309.529     -66.548
  H      171.938     315.219     -69.693
  H      170.633     314.442     -71.722
  H      171.207     316.123     -71.792
  P      174.432     317.652     -71.616
  C      176.868     316.754     -71.526
  O      175.999     317.859     -71.364
  O      173.787     319.066     -71.241
  O      174.034     317.192     -72.979
  H      173.665     319.605     -72.046
  H      176.546     316.109     -72.349
  H      176.894     316.177     -70.598
  H      177.872     317.124     -71.744
  H      169.786     318.231     -74.184
  H      169.367     316.741     -73.373
  H      169.325     316.827     -75.117

 3  4  5  6  7  8  9  10  11  12  23  26  30  31  33  0
 6-311+G(2d,p)
 ****
 35  36  37  38 0
 6-311+G(2d,p)
 ****
 1  2  13  14  15  16  17  18  19  20  21  22  24  25  27  28  29 0
 3-21G
 ****
 32  34  39  40  41  42  43  44  45  46  47  48  49 0
 3-21G
 ****


