%nproc=1
%NoSave
%Mem=1900MB
#P OB98/GEN NMR

erre ene a

0 1
  C      598.387    1302.376     754.799
  O      597.101    1302.477     754.224
  H      599.092    1302.924     754.171
  H      598.702    1301.327     754.846
  H      598.413    1302.811     755.800
  P      595.888    1301.903     755.117
  C      594.731    1304.234     755.271
  O      594.633    1302.886     754.847
  C      593.495    1305.033     754.808
  O      593.565    1305.231     753.364
  C      592.168    1304.337     755.091
  O      591.737    1304.570     756.413
  C      591.281    1305.057     754.084
  O      590.938    1306.370     754.597
  C      592.203    1305.174     752.877
  N      590.018    1303.510     748.596
  C      589.862    1304.740     749.249
  N      589.002    1305.607     748.719
  N      590.509    1305.016     750.373
  C      591.334    1304.045     750.799
  C      591.561    1302.798     750.219
  C      590.858    1302.475     749.001
  O      590.961    1301.455     748.374
  N      592.462    1302.077     750.954
  C      592.776    1302.870     751.984
  N      592.098    1304.065     751.926
  O      596.318    1302.251     756.619
  O      595.611    1300.447     754.962
  H      590.415    1306.823     753.910
  H      596.025    1301.543     757.213
  H      589.506    1303.330     747.757
  H      593.477    1302.614     752.753
  H      592.037    1306.097     752.301
  H      590.330    1304.554     753.915
  H      588.443    1305.399     747.879
  H      592.215    1303.258     754.819
  H      588.893    1306.511     749.177
  H      593.545    1306.019     755.292
  H      595.634    1304.678     754.845
  H      594.812    1304.258     756.373
  P      591.152    1303.278     757.231
  C      593.603    1302.694     757.909
  O      592.264    1302.967     758.354
  O      591.310    1302.086     756.185
  O      589.770    1303.444     757.716
  H      590.667    1301.379     756.405
  H      594.229    1302.507     758.756
  H      593.978    1303.537     757.368
  H      593.599    1301.835     757.272

 6  7  8  9  10  11  12  13  14  15  26  29  33  34 0
 6-311+G(2d,p)
 ****
 36  38  39  40  41 0
 6-311+G(2d,p)
 ****
 1  2  3  4  5  16  17  18  19  20  21  22  23  24  25 0
 3-21G
 ****
 27  28  30  31  32  35  37  42  43  44  45  46  47 0
 3-21G
 ****
 48  49 0
 3-21G
 ****


