%nproc=1
%NoSave
%Mem=1900MB
#P OB98/GEN NMR

erre ene a

0 1
  C      323.871      69.647     532.083
  O      322.569      69.133     532.331
  P      321.947      69.401     533.787
  C      321.556      66.909     534.479
  O      322.295      68.107     534.668
  C      322.054      65.833     535.449
  O      323.403      65.440     535.106
  C      322.100      66.277     536.900
  O      320.819      66.175     537.493
  C      323.125      65.312     537.486
  O      322.522      64.037     537.779
  C      324.140      65.191     536.339
  N      329.089      65.713     535.466
  C      328.290      64.587     535.400
  N      328.889      63.442     534.996
  N      327.013      64.584     535.693
  C      326.557      65.790     536.091
  C      327.249      66.977     536.216
  C      328.643      66.977     535.834
  O      329.370      67.964     535.787
  N      326.447      67.988     536.672
  C      325.262      67.425     536.793
  N      325.268      66.093     536.430
  O      320.366      69.293     533.532
  O      322.335      70.705     534.418
  H      323.211      63.409     538.063
  H      319.976      70.178     533.435
  H      330.062      65.661     535.211
  H      324.365      67.939     537.112
  H      324.556      64.172     536.258
  H      323.559      65.680     538.421
  H      329.871      63.368     534.773
  H      322.479      67.304     536.979
  H      328.320      62.607     534.947
  H      321.413      64.952     535.334
  H      321.695      66.561     533.449
  H      320.489      67.113     534.644
  P      320.628      66.776     538.972
  C      319.426      64.761     540.089
  O      320.605      65.535     539.983
  O      319.118      67.296     538.970
  O      321.589      67.870     539.320
  H      319.053      68.114     539.501
  H      319.696      63.732     540.354
  H      318.865      64.750     539.150
  H      318.791      65.177     540.878
  H      324.167      69.402     531.084
  H      324.563      69.216     532.776
  H      323.863      70.710     532.202

 3  4  5  6  7  8  9  10  11  12  23  26  30  31 0
 6-311+G(2d,p)
 ****
 33  35  36  37  38 0
 6-311+G(2d,p)
 ****
 1  2  13  14  15  16  17  18  19  20  21  22  24  25 0
 3-21G
 ****
 27  28  29  32  34  39  40  41  42  43  44  45  46  47  48  49 0
 3-21G
 ****


