%nproc=1
%NoSave
%Mem=1900MB
#P OB98/GEN NMR

erre ene a

0 1
  C      352.429     194.940    -201.751
  O      352.900     193.900    -202.585
  H      352.724     194.722    -200.721
  H      351.340     195.009    -201.796
  H      352.877     195.894    -202.046
  P      352.499     193.925    -204.136
  C      350.628     192.140    -204.137
  O      351.963     192.458    -204.495
  C      350.526     190.697    -203.628
  O      350.918     190.664    -202.228
  C      349.110     190.106    -203.719
  O      349.250     188.691    -203.912
  C      348.569     190.408    -202.336
  O      347.401     189.676    -202.066
  C      349.806     190.114    -201.486
  N      349.712     190.675    -200.147
  C      350.500     190.071    -199.165
  O      351.215     189.108    -199.448
  N      350.437     190.546    -197.882
  C      349.609     191.499    -197.590
  N      349.584     191.919    -196.297
  C      348.715     192.128    -198.585
  C      348.821     191.674    -199.834
  O      353.536     194.460    -205.066
  O      351.167     194.816    -204.175
  H      347.006     189.950    -201.208
  H      351.373     195.701    -204.533
  H      348.028     192.906    -198.287
  H      348.205     192.074    -200.634
  H      349.973     189.032    -201.400
  H      348.300     191.465    -202.254
  H      348.518     190.540    -204.529
  H      351.250     190.080    -204.176
  H      350.206     191.452    -195.645
  H      350.006     192.268    -205.028
  H      348.967     192.636    -195.946
  H      350.271     192.828    -203.361
  P      348.442     187.879    -205.033
  C      347.967     185.768    -203.627
  O      348.616     186.306    -204.775
  O      348.752     188.304    -206.432
  O      346.896     188.142    -204.701
  H      346.386     188.123    -205.534
  H      348.159     184.717    -203.568
  H      346.913     185.934    -203.703
  H      348.341     186.249    -202.747

 6  7  8  9  10  11  12  13  14  15  16  26  30  31  32  33  35 0
 6-311+G(2d,p)
 ****
 37  38 0
 6-311+G(2d,p)
 ****
 1  2  3  4  5  17  18  19  20  21  22  23  24  25 0
 3-21G
 ****
 27  28  29  34  36  39  40  41  42  43  44  45  46 0
 3-21G
 ****


