%nproc=1
%NoSave
%Mem=1900MB
#P OB98/GEN NMR

erre ene a

0 1
  C      -96.648      48.862     -23.914
  O      -96.944      50.080     -24.559
  H      -97.150      48.851     -22.942
  H      -95.569      48.784     -23.753
  H      -96.995      48.005     -24.498
  P      -96.720      50.189     -26.140
  C      -94.684      51.774     -26.098
  O      -95.159      50.466     -26.396
  C      -93.157      51.825     -26.032
  O      -92.663      50.818     -25.121
  C      -92.506      51.528     -27.384
  O      -92.397      52.635     -28.260
  C      -91.128      51.026     -26.962
  O      -90.222      52.124     -26.761
  C      -91.416      50.319     -25.636
  N      -89.012      46.023     -27.009
  C      -88.585      47.333     -27.119
  N      -87.392      47.523     -27.726
  N      -89.277      48.355     -26.691
  C      -90.491      48.020     -26.194
  C      -91.029      46.761     -26.046
  C      -90.231      45.630     -26.473
  O      -90.566      44.451     -26.405
  N      -92.288      46.812     -25.498
  C      -92.540      48.101     -25.386
  N      -91.469      48.874     -25.771
  O      -97.387      51.598     -26.519
  O      -97.315      49.076     -26.950
  H      -90.146      52.616     -27.599
  H      -97.679      51.588     -27.448
  H      -88.425      45.274     -27.330
  H      -93.464      48.526     -25.009
  H      -90.648      50.544     -24.885
  H      -90.681      50.384     -27.727
  H      -86.880      46.778     -28.175
  H      -93.030      50.710     -27.888
  H      -87.171      48.462     -28.062
  H      -92.845      52.800     -25.637
  H      -95.109      52.051     -25.131
  H      -95.059      52.490     -26.835
  P      -92.782      52.476     -29.806
  C      -90.255      52.549     -30.427
  O      -91.492      51.881     -30.550
  O      -92.851      53.992     -30.312
  O      -94.054      51.744     -30.065
  H      -93.773      54.308     -30.302
  H      -89.508      52.021     -30.982
  H      -89.972      52.589     -29.396
  H      -90.347      53.544     -30.810

 6  7  8  9  10  11  12  13  14  15  26  29  33  34 0
 6-311+G(2d,p)
 ****
 36  38  39  40  41 0
 6-311+G(2d,p)
 ****
 1  2  3  4  5  16  17  18  19  20  21  22  23  24  25 0
 3-21G
 ****
 27  28  30  31  32  35  37  42  43  44  45  46  47 0
 3-21G
 ****
 48  49 0
 3-21G
 ****


