%nproc=1
%NoSave
%Mem=1900MB
#P OB98/GEN NMR

erre ene a

0 1
  C     -253.986      -8.980     -24.427
  O     -253.925      -7.581     -24.182
  P     -254.933      -6.978     -23.086
  C     -256.555      -6.521     -25.060
  O     -256.390      -7.057     -23.751
  C     -257.956      -5.946     -25.229
  O     -258.924      -7.011     -25.219
  C     -258.388      -4.991     -24.126
  O     -257.863      -3.686     -24.316
  C     -259.899      -5.006     -24.299
  O     -260.273      -4.105     -25.359
  C     -260.168      -6.461     -24.716
  N     -263.968      -7.385     -21.493
  C     -263.863      -6.435     -22.492
  N     -264.937      -5.634     -22.676
  N     -262.803      -6.282     -23.241
  C     -261.826      -7.178     -22.972
  C     -261.809      -8.162     -22.009
  C     -262.968      -8.287     -21.152
  O     -263.091      -9.065     -20.208
  N     -260.643      -8.883     -22.051
  C     -259.972      -8.363     -23.058
  N     -260.635      -7.305     -23.630
  O     -254.601      -5.413     -23.112
  O     -254.796      -7.552     -21.717
  H     -261.240      -3.988     -25.305
  H     -254.839      -5.008     -22.255
  H     -264.813      -7.468     -20.959
  H     -259.011      -8.717     -23.403
  H     -260.896      -6.515     -25.532
  H     -260.436      -4.683     -23.402
  H     -265.823      -5.789     -22.221
  H     -258.128      -5.389     -23.137
  H     -264.893      -4.958     -23.427
  H     -258.005      -5.452     -26.208
  H     -256.405      -7.317     -25.797
  H     -255.797      -5.746     -25.220
  P     -257.217      -2.975     -23.028
  C     -259.377      -1.763     -22.245
  O     -258.430      -2.785     -22.000
  O     -256.909      -1.492     -23.542
  O     -255.999      -3.656     -22.496
  H     -256.177      -1.102     -23.028
  H     -259.569      -1.643     -23.316
  H     -259.009      -0.819     -21.833
  H     -260.316      -2.025     -21.750
  H     -253.266      -9.243     -25.174
  H     -254.966      -9.240     -24.769
  H     -253.772      -9.510     -23.523

 3  4  5  6  7  8  9  10  11  12  23  26  30  31  33  0
 6-311+G(2d,p)
 ****
 35  36  37  38 0
 6-311+G(2d,p)
 ****
 1  2  13  14  15  16  17  18  19  20  21  22  24  25  27  28  29 0
 3-21G
 ****
 32  34  39  40  41  42  43  44  45  46  47  48  49 0
 3-21G
 ****


