%nproc=1
%NoSave
%Mem=1900MB
#P OB98/GEN NMR

erre ene a

0 1
  C      190.377    -221.829    -106.223
  O      190.221    -221.802    -107.646
  P      191.551    -221.626    -108.532
  C      192.915    -219.550    -109.350
  O      191.726    -220.045    -108.756
  C      193.424    -218.313    -108.600
  O      192.575    -217.166    -108.905
  C      193.467    -218.469    -107.072
  O      194.635    -217.771    -106.616
  C      192.213    -217.749    -106.618
  O      192.293    -217.340    -105.259
  C      192.158    -216.606    -107.638
  N      190.833    -215.992    -107.733
  C      190.489    -215.085    -106.736
  O      191.208    -214.848    -105.767
  N      189.262    -214.491    -106.873
  C      188.338    -214.769    -107.839
  O      187.253    -214.202    -107.913
  C      188.717    -215.820    -108.798
  C      189.925    -216.372    -108.698
  O      191.064    -222.179    -109.949
  O      192.735    -222.329    -107.949
  H      190.141    -221.952    -110.157
  H      193.067    -216.750    -105.150
  H      189.003    -213.802    -106.176
  H      187.986    -216.106    -109.546
  H      190.224    -217.165    -109.371
  H      192.882    -215.824    -107.374
  H      191.342    -218.409    -106.732
  H      193.513    -219.517    -106.754
  H      194.431    -218.077    -108.978
  H      192.724    -219.275    -110.392
  H      193.669    -220.344    -109.364
  P      195.777    -218.615    -105.859
  C      196.876    -218.428    -103.485
  O      195.775    -218.152    -104.325
  O      197.093    -217.898    -106.444
  O      195.760    -220.088    -106.121
  H      197.039    -216.930    -106.419
  H      196.777    -217.834    -102.571
  H      197.815    -218.161    -103.972
  H      196.882    -219.487    -103.218
  H      189.419    -221.950    -105.761
  H      190.817    -220.911    -105.895
  H      191.011    -222.646    -105.949

 3  4  5  6  7  8  9  10  11  12  13  24  28  29  30  31  32 0
 6-311+G(2d,p)
 ****
 33  34 0
 6-311+G(2d,p)
 ****
 1  2  14  15  16  17  18  19  20  21  22  23  25  26  27 0
 3-21G
 ****
 35  36  37  38  39  40  41  42  43  44  45 0
 3-21G
 ****


