%nproc=1
%NoSave
%Mem=1900MB
#P OB98/GEN NMR

erre ene a

0 1
  C      802.085    -398.512     -52.100
  O      802.930    -399.579     -52.483
  H      802.502    -398.038     -51.206
  H      801.083    -398.880     -51.863
  H      802.028    -397.767     -52.896
  P      802.525    -400.443     -53.769
  C      803.803    -398.668     -55.144
  O      802.612    -399.433     -55.016
  C      804.765    -399.349     -56.110
  O      804.182    -399.437     -57.425
  C      806.103    -398.618     -56.271
  O      806.972    -398.940     -55.192
  C      806.558    -399.195     -57.601
  O      807.072    -400.527     -57.407
  C      805.246    -399.231     -58.397
  N      803.423    -397.382     -62.752
  C      803.613    -398.694     -62.357
  N      803.320    -399.643     -63.270
  N      804.076    -399.038     -61.182
  C      804.393    -397.979     -60.400
  C      804.261    -396.641     -60.681
  C      803.699    -396.273     -61.966
  O      803.487    -395.117     -62.355
  N      804.747    -395.854     -59.668
  C      805.134    -396.720     -58.755
  N      804.952    -398.023     -59.156
  O      801.230    -401.194     -53.688
  O      803.772    -401.418     -53.994
  H      807.889    -400.433     -56.883
  H      803.638    -402.272     -53.540
  H      803.081    -397.184     -63.677
  H      805.550    -396.460     -57.785
  H      805.211    -400.068     -59.100
  H      807.356    -398.610     -58.065
  H      803.244    -399.436     -64.257
  H      805.961    -397.544     -56.387
  H      803.504    -400.609     -63.015
  H      804.918    -400.380     -55.755
  H      804.251    -398.582     -54.149
  H      803.566    -397.661     -55.510
  P      807.589    -397.780     -54.266
  C      806.022    -398.091     -52.228
  O      806.364    -397.286     -53.353
  O      808.292    -396.691     -55.007
  O      808.510    -398.554     -53.216
  H      809.438    -398.691     -53.529
  H      805.195    -397.650     -51.712
  H      806.861    -398.156     -51.568
  H      805.752    -399.072     -52.560

 6  7  8  9  10  11  12  13  14  15  26  29  33  34 0
 6-311+G(2d,p)
 ****
 36  38  39  40  41 0
 6-311+G(2d,p)
 ****
 1  2  3  4  5  16  17  18  19  20  21  22  23  24  25 0
 3-21G
 ****
 27  28  30  31  32  35  37  42  43  44  45  46  47 0
 3-21G
 ****
 48  49 0
 3-21G
 ****


