%nproc=1
%NoSave
%Mem=1900MB
#P OB98/GEN NMR

erre ene a

0 1
  C     -285.840    -773.605     102.326
  O     -286.909    -774.204     103.043
  H     -285.070    -774.361     102.142
  H     -285.397    -772.799     102.931
  H     -286.196    -773.213     101.370
  P     -288.149    -773.255     103.404
  C     -289.799    -775.115     102.601
  O     -289.401    -774.224     103.636
  C     -290.309    -776.430     103.179
  O     -289.167    -777.206     103.660
  C     -291.267    -776.261     104.376
  O     -292.154    -777.390     104.380
  C     -290.293    -776.359     105.554
  O     -290.991    -776.557     106.762
  C     -289.404    -777.498     105.056
  N     -287.213    -778.481     109.569
  C     -288.502    -778.527     109.161
  N     -289.005    -778.265     107.948
  C     -288.029    -777.946     107.078
  C     -286.666    -777.861     107.341
  C     -286.257    -778.146     108.660
  N     -284.950    -778.088     109.074
  N     -285.961    -777.495     106.194
  C     -286.884    -777.361     105.271
  N     -288.144    -777.607     105.762
  O     -288.475    -772.532     102.009
  O     -287.906    -772.266     104.504
  H     -291.496    -775.750     107.010
  H     -288.033    -771.677     101.969
  H     -289.221    -778.805     109.931
  H     -286.703    -777.085     104.240
  H     -289.916    -778.472     105.122
  H     -289.728    -775.428     105.664
  H     -291.845    -775.335     104.341
  H     -290.772    -777.023     102.383
  H     -288.936    -775.297     101.948
  H     -290.594    -774.641     102.006
  H     -284.742    -778.295     110.043
  H     -284.229    -777.829     108.407
  P     -293.426    -777.364     105.373
  C     -295.243    -777.599     103.503
  O     -294.639    -778.153     104.681
  O     -293.904    -775.843     105.272
  O     -293.149    -777.730     106.812
  H     -294.355    -775.565     106.111
  H     -296.030    -778.242     103.170
  H     -294.506    -777.509     102.733
  H     -295.643    -776.633     103.728

 6  7  8  9  10  11  12  13  14  15  25  28  32  33  34  35 0
 6-311+G(2d,p)
 ****
 36  37  40 0
 6-311+G(2d,p)
 ****
 1  2  3  4  5  16  17  18  19  20  21  22  23  24 0
 3-21G
 ****
 26  27  29  30  31  38  39 41  42  43  44  45  46  47  48 0
 3-21G
 ****


