%nproc=1
%NoSave
%Mem=1900MB
#P OB98/GEN NMR

erre ene a

0 1
  C      -67.950    -335.660     -81.193
  O      -67.524    -336.898     -80.663
  H      -68.834    -335.331     -80.642
  H      -68.213    -335.773     -82.247
  H      -67.165    -334.908     -81.081
  P      -66.211    -337.560     -81.313
  C      -67.388    -338.344     -83.498
  O      -66.442    -337.465     -82.903
  C      -67.332    -338.232     -85.025
  O      -68.170    -339.261     -85.606
  C      -67.820    -336.880     -85.551
  O      -66.944    -336.433     -86.588
  C      -69.205    -337.169     -86.100
  O      -69.583    -336.254     -87.126
  C      -69.071    -338.634     -86.539
  N      -70.365    -339.313     -86.560
  C      -70.838    -339.732     -87.811
  O      -70.177    -339.511     -88.829
  N      -72.064    -340.339     -87.886
  C      -72.788    -340.461     -86.822
  N      -74.006    -341.052     -86.965
  C      -72.355    -339.991     -85.491
  C      -71.142    -339.438     -85.434
  O      -66.400    -339.115     -80.995
  O      -64.912    -336.997     -80.839
  H      -70.488    -336.494     -87.426
  H      -65.565    -339.619     -81.150
  H      -73.003    -340.103     -84.633
  H      -70.743    -339.063     -84.497
  H      -68.625    -338.699     -87.541
  H      -69.941    -337.089     -85.290
  H      -67.864    -336.113     -84.777
  H      -66.306    -338.439     -85.351
  H      -74.276    -341.352     -87.896
  H      -68.391    -338.080     -83.143
  H      -74.665    -341.171     -86.209
  H      -67.160    -339.372     -83.198
  P      -65.786    -335.413     -86.144
  C      -66.785    -333.201     -87.054
  O      -66.472    -333.979     -85.909
  O      -64.927    -335.215     -87.480
  O      -64.962    -335.905     -85.001
  H      -64.127    -335.771     -87.454
  H      -67.233    -332.279     -86.747
  H      -67.469    -333.740     -87.676
  H      -65.889    -332.997     -87.602

 6  7  8  9  10  11  12  13  14  15  16  26  30  31  32  33  35 0
 6-311+G(2d,p)
 ****
 37  38 0
 6-311+G(2d,p)
 ****
 1  2  3  4  5  17  18  19  20  21  22  23  24  25 0
 3-21G
 ****
 27  28  29  34  36  39  40  41  42  43  44  45  46 0
 3-21G
 ****


