%nproc=1
%NoSave
%Mem=1900MB
#P OB98/GEN NMR

erre ene a

0 1
  C     -223.416    1361.528    -264.573
  O     -223.481    1362.828    -264.006
  P     -224.709    1363.760    -264.454
  C     -225.478    1364.288    -262.003
  O     -224.974    1364.797    -263.257
  C     -224.562    1364.739    -260.863
  O     -223.441    1363.841    -260.738
  C     -223.940    1366.117    -261.055
  O     -224.896    1367.147    -260.809
  C     -222.798    1366.056    -260.046
  O     -223.305    1366.287    -258.704
  C     -222.325    1364.606    -260.188
  N     -217.263    1363.906    -260.466
  C     -218.104    1364.031    -259.412
  N     -219.440    1364.235    -259.419
  C     -219.886    1364.316    -260.688
  C     -219.156    1364.226    -261.840
  C     -217.773    1364.022    -261.716
  N     -216.911    1363.902    -262.770
  N     -219.974    1364.386    -262.953
  C     -221.182    1364.533    -262.461
  N     -221.190    1364.479    -261.080
  O     -225.971    1362.772    -264.369
  O     -224.568    1364.383    -265.803
  H     -223.788    1367.135    -258.721
  H     -226.618    1362.993    -265.067
  H     -217.642    1363.940    -258.414
  H     -222.086    1364.675    -263.045
  H     -222.056    1364.170    -259.244
  H     -222.015    1366.800    -260.244
  H     -223.542    1366.238    -262.067
  H     -225.156    1364.707    -259.942
  H     -225.487    1363.184    -262.057
  H     -215.923    1363.900    -262.607
  H     -217.277    1364.118    -263.720
  H     -226.505    1364.637    -261.861
  P     -224.708    1368.549    -261.563
  C     -225.997    1367.494    -263.511
  O     -225.921    1368.600    -262.623
  O     -223.421    1368.251    -262.489
  O     -224.583    1369.737    -260.659
  H     -223.515    1367.415    -262.969
  H     -226.855    1367.614    -264.136
  H     -226.081    1366.562    -262.936
  H     -225.105    1367.453    -264.155
  H     -222.557    1361.016    -264.193
  H     -223.343    1361.606    -265.638
  H     -224.299    1360.982    -264.315

 3  4  5  6  7  8  9  10  11  12  22  25  29  30  31  32 0
 6-311+G(2d,p)
 ****
 33  36  37 0
 6-311+G(2d,p)
 ****
 1  2  13  14  15  16  17  18  19  20  21  23  24  26 0
 3-21G
 ****
 27  28  34  35  38  39  40  41  42  43  44  45  46  47  48 0
 3-21G
 ****


