%nproc=1
%NoSave
%Mem=1900MB
#P OB98/GEN NMR

erre ene a

0 1
  C      329.305     -19.182     -93.478
  O      329.752     -20.507     -93.692
  H      328.719     -19.151     -92.555
  H      328.670     -18.852     -94.304
  H      330.156     -18.503     -93.373
  P      330.635     -20.808     -94.995
  C      332.826     -20.682     -93.633
  O      332.068     -20.152     -94.716
  C      334.310     -20.693     -93.989
  O      334.558     -21.590     -95.091
  C      334.861     -19.330     -94.410
  O      335.148     -18.537     -93.271
  C      336.102     -19.756     -95.175
  O      337.139     -20.129     -94.246
  C      335.589     -21.002     -95.926
  N      336.631     -19.910    -100.768
  C      337.483     -20.061     -99.685
  N      338.794     -19.845     -99.926
  N      337.082     -20.373     -98.479
  C      335.736     -20.487     -98.380
  C      334.797     -20.343     -99.372
  C      335.251     -20.060    -100.711
  O      334.532     -19.932    -101.697
  N      333.519     -20.468     -98.869
  C      333.699     -20.720     -97.590
  N      335.022     -20.732     -97.236
  O      330.033     -20.413     -96.309
  O      330.926     -22.380     -94.912
  H      337.449     -19.308     -93.821
  H      330.257     -22.887     -95.404
  H      337.000     -19.656    -101.666
  H      332.899     -20.912     -96.874
  H      336.371     -21.757     -96.060
  H      336.503     -18.975     -95.817
  H      339.110     -19.339    -100.745
  H      334.185     -18.818     -95.109
  H      339.429     -19.902     -99.143
  H      334.860     -21.087     -93.124
  H      332.469     -21.696     -93.444
  H      332.669     -20.078     -92.730
  P      335.140     -16.928     -93.355
  C      332.573     -16.730     -93.108
  O      333.699     -16.562     -93.955
  O      336.292     -16.337     -94.088
  O      335.011     -16.454     -91.839
  H      335.888     -16.345     -91.383
  H      331.685     -16.450     -93.635
  H      332.683     -16.112     -92.242
  H      332.502     -17.755     -92.808

 6  7  8  9  10  11  12  13  14  15  26  29  33  34 0
 6-311+G(2d,p)
 ****
 36  38  39  40  41 0
 6-311+G(2d,p)
 ****
 1  2  3  4  5  16  17  18  19  20  21  22  23  24  25 0
 3-21G
 ****
 27  28  30  31  32  35  37  42  43  44  45  46  47 0
 3-21G
 ****
 48  49 0
 3-21G
 ****


