%nproc=1
%NoSave
%Mem=1900MB
#P OB98/GEN NMR

erre ene a

0 1
  C      287.081     -14.228    -331.718
  O      286.093     -14.548    -330.765
  H      286.965     -14.896    -332.576
  H      288.079     -14.379    -331.299
  H      286.969     -13.197    -332.060
  P      286.054     -13.746    -329.374
  C      283.526     -13.347    -329.567
  O      284.561     -13.956    -328.806
  C      282.181     -14.027    -329.307
  O      282.216     -15.386    -329.820
  C      281.804     -14.103    -327.821
  O      280.448     -13.688    -327.642
  C      281.931     -15.584    -327.495
  O      281.135     -15.981    -326.382
  C      281.552     -16.207    -328.843
  N      281.947     -17.607    -328.930
  C      281.324     -18.481    -328.035
  O      280.486     -18.058    -327.236
  N      281.699     -19.799    -328.027
  C      282.651     -20.200    -328.812
  N      282.995     -21.513    -328.734
  C      283.355     -19.305    -329.752
  C      282.955     -18.033    -329.762
  O      286.503     -12.327    -329.460
  O      286.938     -14.625    -328.370
  H      280.188     -15.884    -326.626
  H      287.250     -14.051    -327.633
  H      284.146     -19.688    -330.380
  H      283.414     -17.303    -330.418
  H      280.470     -16.137    -329.017
  H      282.978     -15.814    -327.260
  H      282.447     -13.498    -327.182
  H      281.409     -13.500    -329.885
  H      282.491     -22.089    -328.070
  H      283.787     -13.411    -330.630
  H      283.734     -21.933    -329.275
  H      283.457     -12.295    -329.276
  P      280.224     -12.341    -326.799
  C      277.839     -12.208    -327.810
  O      278.644     -12.111    -326.645
  O      280.688     -11.191    -327.810
  O      281.003     -12.301    -325.526
  H      281.523     -10.793    -327.499
  H      276.816     -12.032    -327.552
  H      277.937     -13.187    -328.231
  H      278.157     -11.479    -328.525

 6  7  8  9  10  11  12  13  14  15  16  26  30  31  32  33  35 0
 6-311+G(2d,p)
 ****
 37  38 0
 6-311+G(2d,p)
 ****
 1  2  3  4  5  17  18  19  20  21  22  23  24  25 0
 3-21G
 ****
 27  28  29  34  36  39  40  41  42  43  44  45  46 0
 3-21G
 ****


