%nproc=1
%NoSave
%Mem=1900MB
#P OB98/GEN NMR

erre ene a

0 1
  C     -214.171    -254.323    -135.364
  O     -213.357    -254.600    -134.232
  P     -213.793    -255.823    -133.284
  C     -211.683    -257.286    -132.896
  O     -212.839    -257.046    -133.691
  C     -210.612    -258.008    -133.711
  O     -210.066    -257.123    -134.707
  C     -209.422    -258.495    -132.897
  O     -209.686    -259.730    -132.247
  C     -208.384    -258.685    -133.992
  O     -208.623    -259.925    -134.683
  C     -208.679    -257.499    -134.919
  N     -204.129    -255.383    -135.907
  C     -204.660    -256.576    -136.249
  N     -205.875    -257.074    -135.936
  C     -206.555    -256.212    -135.159
  C     -206.127    -254.977    -134.698
  C     -204.853    -254.557    -135.113
  N     -204.324    -253.330    -134.785
  N     -207.097    -254.385    -133.921
  C     -208.100    -255.241    -133.921
  N     -207.822    -256.357    -134.661
  O     -215.215    -256.251    -133.881
  O     -213.867    -255.499    -131.832
  H     -208.467    -260.641    -134.040
  H     -215.739    -256.716    -133.197
  H     -204.031    -257.212    -136.860
  H     -209.040    -255.093    -133.407
  H     -208.572    -257.759    -135.977
  H     -207.363    -258.726    -133.605
  H     -209.079    -257.727    -132.194
  H     -211.094    -258.846    -134.230
  H     -211.961    -257.908    -132.040
  H     -203.493    -253.029    -135.269
  H     -204.943    -252.641    -134.367
  H     -211.300    -256.330    -132.526
  P     -210.099    -259.658    -130.698
  C     -212.563    -260.484    -130.702
  O     -211.677    -259.381    -130.693
  O     -209.460    -258.272    -130.215
  O     -209.626    -260.817    -129.886
  H     -209.286    -258.293    -129.255
  H     -213.553    -260.140    -130.387
  H     -212.229    -261.264    -130.013
  H     -212.638    -260.893    -131.714
  H     -213.765    -253.490    -135.900
  H     -215.164    -254.089    -135.041
  H     -214.196    -255.181    -136.003

 3  4  5  6  7  8  9  10  11  12  22  25  29  30  31  32 0
 6-311+G(2d,p)
 ****
 33  36  37 0
 6-311+G(2d,p)
 ****
 1  2  13  14  15  16  17  18  19  20  21  23  24  26 0
 3-21G
 ****
 27  28  34  35  38  39  40  41  42  43  44  45  46  47  48 0
 3-21G
 ****


