%nproc=1
%NoSave
%Mem=1900MB
#P OB98/GEN NMR

erre ene a

0 1
  C       73.036      88.404    -215.888
  O       72.595      87.639    -214.785
  H       72.192      88.559    -216.566
  H       73.821      87.867    -216.427
  H       73.406      89.379    -215.563
  P       73.591      87.422    -213.548
  C       74.038      84.973    -214.236
  O       74.599      86.250    -213.966
  C       75.119      83.887    -214.209
  O       75.967      84.048    -215.389
  C       76.047      83.945    -212.976
  O       76.471      82.601    -212.710
  C       77.186      84.791    -213.515
  O       78.312      84.781    -212.674
  C       77.325      84.166    -214.910
  N       78.140      84.919    -215.856
  C       79.508      84.658    -215.882
  O       80.077      83.835    -215.168
  N       80.235      85.395    -216.779
  C       79.739      86.333    -217.638
  O       80.439      86.939    -218.442
  C       78.292      86.568    -217.559
  C       77.569      85.861    -216.687
  O       72.941      87.253    -212.216
  O       74.526      88.722    -213.586
  H       74.235      89.355    -212.903
  H       78.485      83.860    -212.382
  H       81.224      85.215    -216.816
  H       77.868      87.314    -218.219
  H       76.495      86.005    -216.612
  H       77.722      83.148    -214.824
  H       76.874      85.835    -213.584
  H       75.556      84.354    -212.091
  H       74.639      82.906    -214.296
  H       73.571      85.006    -215.225
  H       73.269      84.754    -213.486
  P       75.723      81.622    -211.681
  C       77.390      81.522    -209.701
  O       76.157      82.038    -210.191
  O       75.911      80.172    -211.980
  O       74.176      82.031    -211.761
  H       73.623      81.265    -211.515
  H       77.554      81.876    -208.705
  H       78.190      81.850    -210.332
  H       77.353      80.453    -209.698

 6  7  8  9  10  11  12  13  14  15  16  27  31  32  33  34  35 0
 6-311+G(2d,p)
 ****
 36  37 0
 6-311+G(2d,p)
 ****
 1  2  3  4  5  17  18  19  20  21  22  23  24  25 0
 3-21G
 ****
 26  28  29  30  38  39  40  41  42  43  44  45 0
 3-21G
 ****


