%nproc=1
%NoSave
%Mem=1900MB
#P OB98/GEN NMR

erre ene a

0 1
  C      -89.112     -35.826     -44.029
  O      -88.232     -36.245     -43.005
  H      -88.719     -36.121     -45.006
  H      -90.082     -36.309     -43.880
  H      -89.247     -34.742     -43.992
  P      -86.741     -35.653     -43.065
  C      -87.221     -33.116     -42.886
  O      -86.754     -34.282     -42.224
  C      -87.246     -31.938     -41.916
  O      -88.308     -32.167     -40.952
  C      -85.933     -31.736     -41.140
  O      -85.504     -30.371     -41.222
  C      -86.301     -32.042     -39.701
  O      -85.590     -31.242     -38.763
  C      -87.800     -31.765     -39.673
  N      -90.058     -31.264     -35.130
  C      -89.831     -30.371     -36.117
  N      -89.312     -30.588     -37.342
  C      -89.045     -31.894     -37.521
  C      -89.245     -32.924     -36.617
  C      -89.759     -32.564     -35.359
  N      -89.939     -33.466     -34.333
  N      -88.845     -34.133     -37.153
  C      -88.370     -33.831     -38.345
  N      -88.456     -32.488     -38.605
  O      -86.603     -35.163     -44.585
  O      -85.672     -36.627     -42.703
  H      -85.927     -31.465     -37.876
  H      -85.878     -35.660     -45.010
  H      -90.095     -29.341     -35.891
  H      -87.914     -34.530     -39.036
  H      -88.013     -30.696     -39.548
  H      -86.086     -33.097     -39.493
  H      -85.130     -32.390     -41.495
  H      -87.505     -31.029     -42.472
  H      -88.236     -33.290     -43.262
  H      -90.201     -33.104     -33.431
  H      -89.614     -34.414     -34.464
  H      -86.564     -32.899     -43.735
  P      -84.441     -30.030     -42.381
  C      -86.189     -28.901     -43.936
  O      -84.985     -28.754     -43.194
  O      -84.616     -31.248     -43.405
  O      -83.034     -29.924     -41.894
  H      -83.757     -31.692     -43.543
  H      -86.425     -27.976     -44.420
  H      -86.985     -29.170     -43.274
  H      -86.063     -29.667     -44.672

 6  7  8  9  10  11  12  13  14  15  25  28  32  33  34  35 0
 6-311+G(2d,p)
 ****
 36  39  40 0
 6-311+G(2d,p)
 ****
 1  2  3  4  5  16  17  18  19  20  21  22  23  24 0
 3-21G
 ****
 26  27  29  30  31  37  38  41  42  43  44  45  46  47  48 0
 3-21G
 ****


