%nproc=1
%NoSave
%Mem=1900MB
#P OB98/GEN NMR

erre ene a

0 1
  C     -280.993    -454.751     -52.377
  O     -279.685    -454.366     -52.803
  P     -278.423    -454.974     -52.014
  C     -277.049    -455.784     -54.051
  O     -277.785    -456.169     -52.892
  C     -276.129    -456.918     -54.522
  O     -275.028    -457.042     -53.580
  C     -276.781    -458.311     -54.561
  O     -277.427    -458.707     -55.775
  C     -275.568    -459.221     -54.399
  O     -274.932    -459.412     -55.673
  C     -274.650    -458.440     -53.472
  N     -272.949    -461.838     -50.038
  C     -272.662    -461.666     -51.360
  N     -273.175    -460.757     -52.196
  C     -274.029    -459.918     -51.556
  C     -274.401    -459.994     -50.222
  C     -273.839    -461.016     -49.447
  N     -274.128    -461.198     -48.112
  N     -275.313    -458.984     -49.923
  C     -275.501    -458.340     -51.071
  N     -274.730    -458.874     -52.082
  O     -278.641    -455.283     -50.572
  O     -277.322    -453.805     -52.183
  H     -274.747    -458.513     -56.019
  H     -276.808    -453.724     -51.362
  H     -271.952    -462.359     -51.799
  H     -276.172    -457.511     -51.207
  H     -273.601    -458.502     -53.768
  H     -275.839    -460.216     -54.035
  H     -277.477    -458.449     -53.711
  H     -275.706    -456.675     -55.494
  H     -276.454    -454.892     -53.852
  H     -273.696    -461.983     -47.645
  H     -274.820    -460.612     -47.674
  H     -277.786    -455.510     -54.818
  P     -278.973    -459.151     -55.787
  C     -279.428    -456.847     -56.965
  O     -279.812    -457.792     -55.978
  O     -279.399    -459.989     -54.624
  O     -279.118    -459.884     -57.196
  H     -279.042    -459.285     -57.969
  H     -280.213    -456.120     -57.090
  H     -279.223    -457.339     -57.930
  H     -278.513    -456.322     -56.629
  H     -281.724    -454.270     -52.992
  H     -281.136    -454.459     -51.358
  H     -281.098    -455.812     -52.462

 3  4  5  6  7  8  9  10  11  12  22  25  29  30  31  32 0
 6-311+G(2d,p)
 ****
 33  36  37 0
 6-311+G(2d,p)
 ****
 1  2  13  14  15  16  17  18  19  20  21  23  24  26 0
 3-21G
 ****
 27  28  34  35  38  39  40  41  42  43  44  45  46  47  48 0
 3-21G
 ****


