%nproc=1
%NoSave
%Mem=1900MB
#P OB98/GEN NMR

erre ene a

0 1
  C     -205.917     173.981     206.842
  O     -205.959     174.439     208.179
  H     -206.503     173.061     206.768
  H     -204.886     173.767     206.542
  H     -206.353     174.732     206.177
  P     -205.108     175.760     208.512
  C     -205.843     177.590     206.846
  O     -206.081     176.980     208.109
  C     -207.052     178.426     206.420
  O     -208.045     177.536     205.842
  C     -207.723     179.171     207.581
  O     -208.200     180.437     207.110
  C     -208.908     178.286     207.926
  O     -209.946     179.003     208.591
  C     -209.286     177.746     206.546
  N     -213.971     175.828     207.128
  C     -213.530     177.081     206.891
  N     -212.256     177.503     206.725
  C     -211.400     176.460     206.764
  C     -211.704     175.130     207.000
  C     -213.063     174.821     207.198
  N     -213.515     173.554     207.474
  N     -210.544     174.370     207.017
  C     -209.567     175.226     206.787
  N     -210.036     176.508     206.651
  O     -203.741     175.817     207.916
  O     -205.161     175.793     210.111
  H     -210.674     178.377     208.793
  H     -206.067     175.634     210.445
  H     -214.297     177.854     206.835
  H     -208.510     174.976     206.727
  H     -209.898     178.453     205.967
  H     -208.582     177.471     208.585
  H     -207.061     179.326     208.438
  H     -206.744     179.117     205.626
  H     -205.640     176.825     206.088
  H     -214.511     173.420     207.602
  H     -212.861     172.790     207.527
  H     -204.957     178.226     206.943
  P     -208.022     181.736     208.034
  C     -205.578     182.550     207.881
  O     -206.904     182.691     207.382
  O     -207.851     181.468     209.497
  O     -209.373     182.555     207.757
  H     -209.708     182.918     208.605
  H     -204.931     183.234     207.373
  H     -205.239     181.549     207.716
  H     -205.567     182.762     208.930

 6  7  8  9  10  11  12  13  14  15  25  28  32  33  34  35 0
 6-311+G(2d,p)
 ****
 36  39  40 0
 6-311+G(2d,p)
 ****
 1  2  3  4  5  16  17  18  19  20  21  22  23  24 0
 3-21G
 ****
 26  27  29  30  31  37  38  41  42  43  44  45  46  47 0
 3-21G
 ****
 48 0
 3-21G
 ****


