%nproc=1
%NoSave
%Mem=1900MB
#P OB98/GEN NMR

erre ene a

0 1
  C       78.008    -188.435    -507.796
  O       77.520    -188.175    -506.482
  P       76.069    -188.745    -506.087
  C       76.957    -190.007    -503.992
  O       76.265    -190.079    -505.231
  C       76.876    -191.353    -503.252
  O       77.213    -192.463    -504.121
  C       77.825    -191.443    -502.067
  O       77.279    -190.851    -500.904
  C       77.907    -192.966    -501.882
  O       76.736    -193.427    -501.170
  C       77.875    -193.478    -503.324
  N       81.369    -197.021    -504.265
  C       80.108    -197.142    -503.710
  N       79.719    -198.390    -503.353
  N       79.301    -196.127    -503.525
  C       79.829    -194.942    -503.928
  C       81.066    -194.696    -504.476
  C       81.946    -195.821    -504.671
  O       83.072    -195.792    -505.145
  N       81.239    -193.368    -504.761
  C       80.097    -192.792    -504.384
  N       79.214    -193.710    -503.871
  O       75.509    -189.287    -507.486
  O       75.143    -187.720    -505.480
  H       76.593    -192.785    -500.449
  H       74.542    -189.247    -507.499
  H       81.956    -197.833    -504.379
  H       79.877    -191.749    -504.491
  H       77.305    -194.413    -503.435
  H       78.777    -193.266    -501.288
  H       80.271    -199.203    -503.525
  H       78.811    -191.053    -502.308
  H       78.770    -198.502    -502.982
  H       75.836    -191.478    -502.894
  H       76.512    -189.220    -503.371
  H       78.001    -189.708    -504.177
  P       77.886    -189.427    -500.430
  C       75.617    -188.181    -500.775
  O       76.992    -188.303    -501.150
  O       79.281    -189.363    -501.210
  O       78.067    -189.281    -498.969
  H       79.945    -188.875    -500.698
  H       75.223    -187.266    -501.236
  H       75.534    -188.089    -499.688
  H       75.057    -189.039    -501.131
  H       78.977    -187.997    -507.910
  H       77.339    -188.012    -508.515
  H       78.074    -189.492    -507.949

 3  4  5  6  7  8  9  10  11  12  23  26  30  31 0
 6-311+G(2d,p)
 ****
 33  35  36  37  38 0
 6-311+G(2d,p)
 ****
 1  2  13  14  15  16  17  18  19  20  21  22  24  25 0
 3-21G
 ****
 27  28  29  32  34  39  40  41  42  43  44  45  46  47  48  49 0
 3-21G
 ****


