%nproc=1
%NoSave
%Mem=1900MB
#P OB98/GEN NMR

erre ene a

0 1
  C      -74.265     164.833    -110.722
  O      -74.557     166.017    -111.468
  P      -73.776     167.351    -111.040
  C      -72.621     167.431    -113.365
  O      -72.463     167.477    -111.953
  C      -72.880     168.837    -113.909
  O      -71.871     169.773    -113.471
  C      -72.861     168.907    -115.431
  O      -74.047     168.362    -115.982
  C      -72.694     170.409    -115.644
  O      -73.953     171.084    -115.482
  C      -71.749     170.793    -114.493
  N      -68.519     173.007    -117.785
  C      -69.858     173.105    -117.629
  N      -70.645     172.479    -116.731
  C      -69.913     171.693    -115.923
  C      -68.543     171.497    -115.958
  C      -67.832     172.195    -116.950
  N      -66.470     172.086    -117.116
  N      -68.152     170.612    -114.975
  C      -69.270     170.263    -114.371
  N      -70.361     170.899    -114.903
  O      -73.199     166.992    -109.592
  O      -74.642     168.567    -111.002
  H      -73.756     172.026    -115.302
  H      -73.685     167.485    -108.907
  H      -70.366     173.771    -118.322
  H      -69.340     169.560    -113.551
  H      -72.023     171.749    -114.034
  H      -72.313     170.661    -116.639
  H      -71.986     168.374    -115.826
  H      -73.854     169.173    -113.533
  H      -73.450     166.773    -113.633
  H      -66.048     172.560    -117.900
  H      -65.960     171.415    -116.556
  H      -71.719     166.997    -113.806
  P      -73.897     167.169    -117.042
  C      -74.577     165.378    -115.332
  O      -73.530     165.896    -116.131
  O      -72.498     167.522    -117.729
  O      -75.055     166.996    -117.964
  H      -71.823     167.761    -117.070
  H      -74.205     164.502    -114.796
  H      -75.420     165.079    -115.960
  H      -74.898     166.128    -114.604
  H      -74.846     164.019    -111.103
  H      -74.506     164.992    -109.692
  H      -73.224     164.602    -110.813

 3  4  5  6  7  8  9  10  11  12  22  25  29  30  31  32 0
 6-311+G(2d,p)
 ****
 33  36  37 0
 6-311+G(2d,p)
 ****
 1  2  13  14  15  16  17  18  19  20  21  23  24  26 0
 3-21G
 ****
 27  28  34  35  38  39  40  41  42  43  44  45  46  47  48 0
 3-21G
 ****


