%nproc=1
%NoSave
%Mem=1900MB
#P OB98/GEN NMR

erre ene a

0 1
  C      352.619      82.021    -517.372
  O      351.946      82.241    -516.147
  H      353.633      81.656    -517.187
  H      352.066      81.267    -517.937
  H      352.655      82.945    -517.958
  P      352.655      83.247    -515.112
  C      354.266      81.492    -514.089
  O      353.159      82.351    -513.882
  C      354.857      81.051    -512.743
  O      355.312      82.190    -512.001
  C      353.865      80.345    -511.825
  O      353.666      78.972    -512.213
  C      354.589      80.455    -510.496
  O      355.602      79.423    -510.403
  C      355.235      81.839    -510.587
  N      354.418      84.107    -506.047
  C      355.238      83.079    -506.412
  N      355.386      82.528    -507.630
  C      354.616      83.136    -508.537
  C      353.744      84.186    -508.316
  C      353.656      84.676    -506.995
  N      352.811      85.702    -506.612
  N      353.127      84.578    -509.482
  C      353.607      83.769    -510.406
  N      354.511      82.881    -509.887
  O      351.438      84.078    -514.505
  O      353.683      84.142    -515.714
  H      356.082      79.572    -509.574
  H      351.727      85.001    -514.345
  H      355.835      82.647    -505.622
  H      353.350      83.804    -511.461
  H      356.277      81.824    -510.221
  H      353.937      80.328    -509.631
  H      352.888      80.886    -511.772
  H      355.727      80.412    -512.956
  H      355.039      82.024    -514.662
  H      352.937      86.135    -505.713
  H      352.250      86.145    -507.341
  H      353.945      80.619    -514.675
  P      352.182      78.528    -512.640
  C      351.624      78.076    -510.146
  O      351.663      77.552    -511.461
  O      352.455      77.546    -513.862
  O      351.256      79.644    -513.013
  H      351.655      77.511    -514.455
  H      351.263      77.326    -509.474
  H      350.971      78.923    -510.119
  H      352.608      78.375    -509.852

 6  7  8  9  10  11  12  13  14  15  25  28  32  33  34  35 0
 6-311+G(2d,p)
 ****
 36  39  40 0
 6-311+G(2d,p)
 ****
 1  2  3  4  5  16  17  18  19  20  21  22  23  24 0
 3-21G
 ****
 26  27  29  30  31  37  38  41  42  43  44  45  46  47  48 0
 3-21G
 ****


