%nproc=1
%NoSave
%Mem=1900MB
#P OB98/GEN NMR

erre ene a

0 1
  C     -453.366    -456.278    -612.465
  O     -451.957    -456.123    -612.376
  P     -451.156    -455.746    -613.708
  C     -449.367    -454.696    -612.147
  O     -449.628    -455.514    -613.275
  C     -447.874    -454.718    -611.816
  O     -447.102    -454.156    -612.888
  C     -447.503    -453.887    -610.593
  O     -447.751    -454.587    -609.376
  C     -446.011    -453.706    -610.805
  O     -445.300    -454.890    -610.397
  C     -445.922    -453.533    -612.325
  N     -442.825    -449.757    -613.674
  C     -442.573    -451.104    -613.513
  N     -441.277    -451.488    -613.673
  N     -443.473    -452.000    -613.217
  C     -444.718    -451.477    -613.074
  C     -445.108    -450.151    -613.197
  C     -444.087    -449.176    -613.519
  O     -444.250    -447.964    -613.609
  N     -446.448    -449.997    -612.988
  C     -446.880    -451.222    -612.735
  N     -445.862    -452.143    -612.728
  O     -451.675    -454.274    -614.045
  O     -451.367    -456.691    -614.855
  H     -445.070    -454.769    -609.455
  H     -451.459    -454.046    -614.975
  H     -442.095    -449.115    -613.897
  H     -447.914    -451.484    -612.524
  H     -445.045    -454.048    -612.751
  H     -445.588    -452.872    -610.232
  H     -440.520    -450.839    -613.839
  H     -447.987    -452.908    -610.604
  H     -441.047    -452.465    -613.512
  H     -447.569    -455.764    -611.694
  H     -449.939    -455.069    -611.290
  H     -449.701    -453.668    -612.362
  P     -448.327    -453.727    -608.147
  C     -449.671    -455.869    -607.542
  O     -448.862    -454.801    -607.089
  O     -449.661    -453.081    -608.756
  O     -447.390    -452.696    -607.629
  H     -449.878    -452.252    -608.304
  H     -449.713    -456.636    -606.760
  H     -449.239    -456.317    -608.448
  H     -450.681    -455.513    -607.749
  H     -453.759    -456.528    -611.502
  H     -453.596    -457.061    -613.158
  H     -453.805    -455.363    -612.803

 3  4  5  6  7  8  9  10  11  12  23  26  30  31 0
 6-311+G(2d,p)
 ****
 33  35  36  37  38 0
 6-311+G(2d,p)
 ****
 1  2  13  14  15  16  17  18  19  20  21  22  24  25 0
 3-21G
 ****
 27  28  29  32  34  39  40  41  42  43  44  45  46  47  48  49 0
 3-21G
 ****


