%nproc=1
%NoSave
%Mem=1900MB
#P OB98/GEN NMR

erre ene a

0 1
  C     -116.257     175.470     169.854
  O     -117.626     175.779     169.688
  H     -116.166     174.664     170.587
  H     -115.712     176.344     170.220
  H     -115.830     175.136     168.905
  P     -117.967     177.023     168.730
  C     -117.084     179.459     169.027
  O     -117.633     178.303     169.642
  C     -116.889     180.559     170.064
  O     -115.861     180.190     171.012
  C     -116.442     181.900     169.489
  O     -117.494     182.632     168.884
  C     -115.941     182.573     170.754
  O     -117.062     182.993     171.554
  C     -115.182     181.407     171.424
  N     -113.765     181.357     171.051
  C     -112.879     180.867     172.018
  O     -113.288     180.505     173.119
  N     -111.537     180.833     171.726
  C     -111.116     181.230     170.565
  N     -109.776     181.173     170.335
  C     -112.014     181.740     169.514
  C     -113.309     181.775     169.820
  O     -119.567     177.031     168.688
  O     -117.312     177.016     167.390
  H     -116.700     183.542     172.274
  H     -119.889     177.851     168.240
  H     -111.616     182.072     168.566
  H     -114.031     182.137     169.096
  H     -115.253     181.468     172.516
  H     -115.338     183.460     170.564
  H     -115.602     181.780     168.796
  H     -117.827     180.660     170.624
  H     -109.181     180.876     171.097
  H     -117.777     179.794     168.248
  H     -109.339     181.597     169.527
  H     -116.121     179.219     168.568
  P     -117.086     183.875     167.953
  C     -115.557     185.920     168.464
  O     -116.570     185.037     168.929
  O     -118.495     184.423     167.438
  O     -116.166     183.537     166.821
  H     -118.423     184.773     166.528
  H     -115.326     186.632     169.228
  H     -115.904     186.433     167.592
  H     -114.678     185.359     168.222

 6  7  8  9  10  11  12  13  14  15  16  26  30  31  32  33  35 0
 6-311+G(2d,p)
 ****
 37  38 0
 6-311+G(2d,p)
 ****
 1  2  3  4  5  17  18  19  20  21  22  23  24  25 0
 3-21G
 ****
 27  28  29  34  36  39  40  41  42  43  44  45  46 0
 3-21G
 ****


