%nproc=1
%NoSave
%Mem=1900MB
#P OB98/GEN NMR

erre ene a

0 1
  C     -742.102     626.904    -194.324
  O     -741.770     627.626    -195.506
  P     -740.560     628.672    -195.414
  C     -742.031     630.638    -196.249
  O     -741.241     630.109    -195.197
  C     -741.659     632.094    -196.522
  O     -741.858     632.875    -195.332
  C     -740.200     632.310    -196.923
  O     -739.978     632.028    -198.291
  C     -740.041     633.793    -196.624
  O     -740.553     634.563    -197.729
  C     -740.931     633.987    -195.385
  N     -738.249     636.872    -192.184
  C     -738.886     637.208    -193.358
  N     -738.826     638.513    -193.726
  N     -739.519     636.357    -194.114
  C     -739.539     635.100    -193.604
  C     -738.947     634.643    -192.447
  C     -738.200     635.592    -191.654
  O     -737.561     635.329    -190.631
  N     -739.201     633.305    -192.259
  C     -739.973     632.964    -193.273
  N     -740.183     634.017    -194.133
  O     -740.034     628.745    -196.928
  O     -739.476     628.301    -194.457
  H     -741.480     634.295    -197.858
  H     -739.091     629.014    -196.933
  H     -737.789     637.577    -191.627
  H     -740.389     631.979    -193.413
  H     -741.522     634.901    -195.448
  H     -738.992     634.097    -196.497
  H     -738.455     639.238    -193.128
  H     -739.531     631.734    -196.270
  H     -739.307     638.790    -194.568
  H     -742.334     632.477    -197.300
  H     -743.089     630.584    -195.978
  H     -741.877     630.027    -197.152
  P     -738.653     631.191    -198.649
  C     -737.247     633.309    -199.210
  O     -737.436     632.191    -198.362
  O     -738.702     631.089    -200.249
  O     -738.577     629.848    -197.997
  H     -738.219     630.306    -200.551
  H     -738.210     633.719    -199.539
  H     -736.672     633.010    -200.086
  H     -736.704     634.088    -198.665
  H     -742.921     626.246    -194.526
  H     -742.379     627.591    -193.552
  H     -741.256     626.332    -194.006

 3  4  5  6  7  8  9  10  11  12  23  26  30  31  33  0
 6-311+G(2d,p)
 ****
 35  36  37  38 0
 6-311+G(2d,p)
 ****
 1  2  13  14  15  16  17  18  19  20  21  22  24  25  27  28  29 0
 3-21G
 ****
 32  34  39  40  41  42  43  44  45  46  47  48  49 0
 3-21G
 ****


