%nproc=1
%NoSave
%Mem=1900MB
#P OB98/GEN NMR

erre ene a

0 1
  C     -309.349    -326.212    -211.791
  O     -307.943    -326.224    -211.559
  P     -307.414    -326.283    -210.045
  C     -307.662    -328.872    -209.537
  O     -308.060    -327.538    -209.298
  C     -306.912    -329.405    -208.305
  O     -307.749    -329.313    -207.131
  C     -306.483    -330.866    -208.445
  O     -305.236    -330.995    -209.093
  C     -306.465    -331.316    -206.999
  O     -305.265    -330.857    -206.341
  C     -307.709    -330.588    -206.428
  N     -309.026    -331.246    -206.571
  C     -309.141    -332.618    -206.350
  O     -308.202    -333.352    -206.045
  N     -310.402    -333.144    -206.484
  C     -311.565    -332.437    -206.636
  O     -312.665    -332.959    -206.690
  C     -311.400    -330.982    -206.714
  C     -310.166    -330.461    -206.690
  O     -308.111    -325.028    -209.350
  O     -305.919    -326.243    -209.909
  H     -304.535    -331.420    -206.657
  H     -307.441    -324.376    -209.071
  H     -310.490    -334.148    -206.399
  H     -312.295    -330.382    -206.790
  H     -310.043    -329.385    -206.745
  H     -307.573    -330.372    -205.361
  H     -306.447    -332.409    -206.923
  H     -307.262    -331.436    -208.962
  H     -306.023    -328.773    -208.141
  H     -307.019    -328.937    -210.419
  H     -308.540    -329.486    -209.742
  P     -305.149    -331.773    -210.495
  C     -305.581    -329.735    -211.998
  O     -306.095    -330.953    -211.504
  O     -305.370    -333.244    -210.445
  O     -303.677    -331.403    -211.032
  H     -303.035    -332.116    -210.805
  H     -306.245    -329.365    -212.788
  H     -304.577    -329.888    -212.424
  H     -305.533    -328.996    -211.199
  H     -309.536    -326.171    -212.844
  H     -309.781    -325.355    -211.318
  H     -309.785    -327.101    -211.385

 3  4  5  6  7  8  9  10  11  12  13  23  28  29  30  31  32 0
 6-311+G(2d,p)
 ****
 33  34 0
 6-311+G(2d,p)
 ****
 1  2  14  15  16  17  18  19  20  21  22  24  25  26  27 0
 3-21G
 ****
 35  36  37  38  39  40  41  42  43  44  45 0
 3-21G
 ****


