%nproc=1
%NoSave
%Mem=1900MB
#P OB98/GEN NMR

erre ene a

0 1
  C       99.085    -430.642    -532.530
  O       98.622    -431.570    -533.496
  P       97.220    -431.244    -534.210
  C       98.449    -430.666    -536.442
  O       97.554    -430.250    -535.421
  C       97.661    -431.026    -537.701
  O       96.901    -432.241    -537.487
  C       96.658    -429.969    -538.140
  O       97.305    -428.945    -538.872
  C       95.681    -430.797    -538.971
  O       96.193    -431.013    -540.298
  C       95.626    -432.115    -538.181
  N       91.679    -434.870    -536.646
  C       92.475    -435.006    -537.768
  N       92.208    -436.061    -538.569
  N       93.449    -434.190    -538.071
  C       93.595    -433.176    -537.183
  C       92.860    -432.924    -536.047
  C       91.822    -433.868    -535.697
  O       91.154    -433.847    -534.665
  N       93.287    -431.786    -535.412
  C       94.299    -431.372    -536.149
  N       94.539    -432.189    -537.222
  O       96.478    -430.316    -533.138
  O       96.410    -432.437    -534.596
  H       96.448    -430.157    -540.690
  H       95.842    -430.839    -532.609
  H       90.955    -435.539    -536.454
  H       94.897    -430.500    -535.936
  H       95.534    -432.984    -538.838
  H       94.713    -430.302    -539.085
  H       91.456    -436.715    -538.412
  H       96.135    -429.549    -537.270
  H       92.779    -436.174    -539.399
  H       98.383    -431.228    -538.504
  H       99.006    -431.541    -536.100
  H       99.155    -429.857    -536.650
  P       96.593    -427.507    -538.929
  C       97.697    -426.138    -537.020
  O       96.597    -426.919    -537.438
  O       95.053    -427.868    -539.192
  O       97.125    -426.591    -539.978
  H       94.652    -427.192    -539.772
  H       97.356    -425.419    -536.272
  H       98.154    -425.596    -537.855
  H       98.450    -426.790    -536.564
  H      100.022    -430.976    -532.135
  H       98.370    -430.566    -531.737
  H       99.213    -429.684    -532.988

 3  4  5  6  7  8  9  10  11  12  23  26  30  31 0
 6-311+G(2d,p)
 ****
 33  35  36  37  38 0
 6-311+G(2d,p)
 ****
 1  2  13  14  15  16  17  18  19  20  21  22  24  25 0
 3-21G
 ****
 27  28  29  32  34  39  40  41  42  43  44  45  46  47  48  49 0
 3-21G
 ****


