%nproc=1
%NoSave
%Mem=1900MB
#P OB98/GEN NMR

erre ene a

0 1
  C     -543.897    -897.910    -251.894
  O     -542.752    -898.430    -252.551
  P     -542.686    -898.490    -254.153
  C     -540.863    -896.680    -254.052
  O     -542.075    -897.100    -254.702
  C     -540.459    -895.240    -254.410
  O     -540.248    -895.070    -255.829
  C     -541.519    -894.150    -254.003
  O     -540.757    -893.000    -253.637
  C     -542.282    -893.930    -255.284
  O     -543.016    -892.710    -255.290
  C     -541.152    -894.040    -256.315
  N     -541.652    -894.370    -257.658
  C     -542.171    -893.300    -258.425
  O     -542.230    -892.170    -257.928
  N     -542.633    -893.550    -259.679
  C     -542.668    -894.810    -260.106
  N     -543.156    -895.000    -261.376
  C     -542.210    -895.960    -259.317
  C     -541.720    -895.660    -258.115
  O     -543.948    -898.930    -254.823
  O     -541.500    -899.550    -254.443
  H     -542.381    -891.970    -255.116
  H     -541.679    -900.000    -255.280
  H     -542.270    -896.940    -259.703
  H     -541.354    -896.440    -257.464
  H     -540.586    -893.110    -256.356
  H     -543.006    -894.770    -255.425
  H     -542.168    -894.470    -253.160
  H     -539.532    -895.030    -253.895
  H     -543.506    -894.180    -261.865
  H     -540.066    -897.350    -254.369
  H     -543.359    -895.900    -261.747
  H     -540.990    -896.770    -252.968
  P     -539.991    -892.880    -252.220
  C     -537.927    -892.440    -253.658
  O     -538.440    -893.120    -252.551
  O     -540.562    -893.730    -251.131
  O     -540.036    -891.330    -251.862
  H     -539.888    -891.190    -250.915
  H     -536.837    -892.490    -253.649
  H     -538.222    -891.390    -253.687
  H     -538.266    -892.920    -254.587
  H     -543.751    -897.954    -250.835
  H     -544.755    -898.490    -252.160
  H     -544.048    -896.893    -252.191

 3  4  5  6  7  8  9  10  11  12  13  23  27  28  29  30  32 0
 6-311+G(2d,p)
 ****
 34  35 0
 6-311+G(2d,p)
 ****
 1  2  14  15  16  17  18  19  20  21  22  24  25  26 0
 3-21G
 ****
 31  33  36  37  38  39  40  41  42  43  44  45  46 0
 3-21G
 ****


