%nproc=1
%NoSave
%Mem=1900MB
#P OB98/GEN NMR

erre ene a

0 1
  C      159.759    -542.186    -245.727
  O      160.315    -541.941    -244.450
  H      160.263    -543.050    -246.172
  H      159.900    -541.322    -246.381
  H      158.694    -542.411    -245.639
  P      159.865    -540.631    -243.643
  C      159.816    -541.863    -241.382
  O      160.399    -540.809    -242.141
  C      160.027    -541.635    -239.884
  O      161.438    -541.813    -239.587
  C      159.614    -540.229    -239.416
  O      159.033    -540.351    -238.114
  C      160.936    -539.502    -239.338
  O      160.877    -538.400    -238.450
  C      161.905    -540.617    -238.931
  N      163.281    -540.285    -239.307
  C      164.005    -539.511    -238.395
  O      163.486    -539.144    -237.340
  N      165.267    -539.097    -238.737
  C      165.751    -539.395    -239.904
  N      167.001    -538.932    -240.191
  C      165.012    -540.197    -240.909
  C      163.797    -540.607    -240.548
  O      158.426    -540.255    -243.753
  O      160.811    -539.482    -244.234
  H      160.218    -537.753    -238.777
  H      160.381    -539.049    -244.992
  H      165.456    -540.406    -241.869
  H      163.179    -541.186    -241.219
  H      161.866    -540.784    -237.843
  H      161.204    -539.119    -240.334
  H      158.907    -539.739    -240.097
  H      159.483    -542.410    -239.333
  H      167.456    -538.365    -239.482
  H      160.300    -542.800    -241.681
  H      167.460    -539.055    -241.077
  H      158.742    -541.930    -241.606
  P      157.662    -541.170    -237.900
  C      158.221    -541.962    -235.521
  O      157.317    -541.210    -236.329
  O      157.627    -542.505    -238.576
  O      156.534    -540.200    -238.498
  H      155.801    -540.742    -238.850
  H      157.903    -541.924    -234.500
  H      159.204    -541.547    -235.604
  H      158.235    -542.979    -235.853

 6  7  8  9  10  11  12  13  14  15  16  26  30  31  32  33  35 0
 6-311+G(2d,p)
 ****
 37  38 0
 6-311+G(2d,p)
 ****
 1  2  3  4  5  17  18  19  20  21  22  23  24  25 0
 3-21G
 ****
 27  28  29  34  36  39  40  41  42  43  44  45  46 0
 3-21G
 ****


