%nproc=1
%NoSave
%Mem=1900MB
#P OB98/GEN NMR

erre ene a

0 1
  C      121.431     432.999    -299.059
  O      121.286     431.850    -298.249
  H      120.707     433.753    -298.736
  H      121.241     432.760    -300.111
  H      122.437     433.413    -298.950
  P      122.122     430.533    -298.616
  C      121.851     428.567    -300.265
  O      121.250     429.731    -299.700
  C      121.081     428.107    -301.504
  O      119.750     427.680    -301.089
  C      120.915     429.196    -302.572
  O      121.019     428.585    -303.860
  C      119.508     429.699    -302.328
  O      118.962     430.304    -303.482
  C      118.787     428.430    -301.857
  N      117.592     428.754    -301.075
  C      116.378     428.774    -301.773
  O      116.350     428.509    -302.974
  N      115.239     429.157    -301.107
  C      115.315     429.538    -299.866
  N      114.154     429.939    -299.283
  C      116.577     429.557    -299.105
  C      117.665     429.154    -299.758
  O      122.594     429.711    -297.463
  O      123.350     431.091    -299.478
  H      118.953     429.652    -304.216
  H      124.105     431.295    -298.894
  H      116.588     429.893    -298.077
  H      118.644     429.150    -299.287
  H      118.490     427.808    -302.714
  H      119.515     430.447    -301.521
  H      121.658     429.998    -302.471
  H      121.583     427.223    -301.917
  H      113.314     429.932    -299.856
  H      121.834     427.776    -299.505
  H      114.094     430.298    -298.341
  H      122.891     428.784    -300.527
  P      122.105     429.102    -304.929
  C      122.227     430.811    -306.831
  O      121.365     430.012    -306.032
  O      122.987     428.029    -305.495
  O      122.980     430.168    -304.100
  H      123.890     430.177    -304.454
  H      121.645     431.376    -307.529
  H      122.908     430.179    -307.363
  H      122.778     431.480    -306.203

 6  7  8  9  10  11  12  13  14  15  16  26  30  31  32  33  35 0
 6-311+G(2d,p)
 ****
 37  38 0
 6-311+G(2d,p)
 ****
 1  2  3  4  5  17  18  19  20  21  22  23  24  25 0
 3-21G
 ****
 27  28  29  34  36  39  40  41  42  43  44  45  46 0
 3-21G
 ****


