%nproc=1
%NoSave
%Mem=1900MB
#P OB98/GEN NMR

erre ene a

0 1
  C     -640.638     871.919     150.840
  O     -640.405     871.636     152.204
  H     -641.479     871.309     150.496
  H     -639.753     871.668     150.241
  H     -640.897     872.972     150.714
  P     -639.168     872.395     152.893
  C     -636.604     872.142     152.720
  O     -637.865     871.776     152.166
  C     -635.548     872.225     151.605
  O     -635.386     870.917     151.021
  C     -635.925     873.198     150.475
  O     -634.738     873.842     150.002
  C     -636.466     872.274     149.393
  O     -636.390     872.856     148.098
  C     -635.581     871.045     149.593
  N     -634.636     866.568     147.329
  C     -633.822     867.483     147.904
  N     -634.169     868.642     148.512
  C     -635.511     868.790     148.539
  C     -636.462     867.947     147.987
  C     -635.983     866.786     147.354
  N     -636.786     865.874     146.732
  N     -637.731     868.473     148.186
  C     -637.544     869.600     148.831
  N     -636.210     869.849     149.050
  O     -639.139     872.358     154.384
  O     -639.266     873.854     152.242
  H     -635.461     873.121     147.928
  H     -639.405     873.805     151.277
  H     -632.757     867.261     147.874
  H     -638.338     870.281     149.157
  H     -634.600     871.141     149.118
  H     -637.518     872.028     149.591
  H     -636.665     873.941     150.779
  H     -634.591     872.498     152.058
  H     -636.289     871.389     153.461
  H     -636.363     865.062     146.301
  H     -637.792     866.004     146.739
  H     -636.716     873.105     153.224
  P     -634.815     875.390     149.593
  C     -635.631     876.820     147.591
  O     -635.378     875.502     148.081
  O     -633.584     876.193     149.863
  O     -636.043     875.936     150.472
  H     -635.824     876.818     150.826
  H     -635.997     876.763     146.587
  H     -634.724     877.387     147.608
  H     -636.361     877.297     148.211

 6  7  8  9  10  11  12  13  14  15  25  28  32  33  34  35 0
 6-311+G(2d,p)
 ****
 36  39  40 0
 6-311+G(2d,p)
 ****
 1  2  3  4  5  16  17  18  19  20  21  22  23  24 0
 3-21G
 ****
 26  27  29  30  31  37  38  41  42  43  44  45  46  47 0
 3-21G
 ****
 48 0
 3-21G
 ****


