%nproc=1
%NoSave
%Mem=1900MB
#P OB98/GEN NMR

erre ene a

0 1
  C     -108.866     136.279    -125.766
  O     -109.598     135.335    -126.538
  P     -111.141     135.665    -126.847
  C     -111.620     135.241    -124.330
  O     -111.775     136.113    -125.443
  C     -112.724     135.480    -123.303
  O     -112.647     136.829    -122.796
  C     -114.137     135.326    -123.844
  O     -114.550     133.968    -123.889
  C     -114.932     136.087    -122.796
  O     -115.120     135.260    -121.631
  C     -113.998     137.257    -122.472
  N     -117.486     140.930    -123.169
  C     -117.495     139.814    -122.410
  N     -116.527     138.880    -122.284
  C     -115.486     139.164    -123.084
  C     -115.354     140.243    -123.941
  C     -116.413     141.165    -123.963
  N     -116.391     142.316    -124.717
  N     -114.144     140.193    -124.598
  C     -113.550     139.111    -124.141
  N     -114.318     138.460    -123.213
  O     -111.777     134.215    -127.094
  O     -111.371     136.583    -127.999
  H     -115.796     134.594    -121.863
  H     -112.587     134.294    -127.633
  H     -118.390     139.657    -121.815
  H     -112.570     138.770    -124.440
  H     -114.006     137.513    -121.406
  H     -115.930     136.376    -123.146
  H     -114.248     135.820    -124.819
  H     -112.557     134.795    -122.462
  H     -110.651     135.427    -123.862
  H     -117.099     143.011    -124.538
  H     -115.514     142.587    -125.147
  H     -111.648     134.203    -124.683
  P     -115.518     133.548    -125.100
  C     -117.797     133.911    -123.906
  O     -116.870     134.375    -124.869
  O     -115.916     132.039    -124.736
  O     -114.891     133.661    -126.449
  H     -116.154     131.547    -125.541
  H     -118.481     134.725    -123.658
  H     -117.289     133.589    -122.992
  H     -118.374     133.081    -124.321
  H     -107.861     135.933    -125.639
  H     -109.328     136.391    -124.808
  H     -108.858     137.223    -126.271

 3  4  5  6  7  8  9  10  11  12  22  25  29  30  31  32 0
 6-311+G(2d,p)
 ****
 33  36  37 0
 6-311+G(2d,p)
 ****
 1  2  13  14  15  16  17  18  19  20  21  23  24  26 0
 3-21G
 ****
 27  28  34  35  38  39  40  41  42  43  44  45  46  47  48 0
 3-21G
 ****


