%nproc=1
%NoSave
%Mem=1900MB
#P OB98/GEN NMR

erre ene a

0 1
  C     -336.224    -975.574     292.625
  O     -336.234    -975.115     291.274
  P     -337.121    -973.824     290.917
  C     -335.472    -971.990     291.897
  O     -336.171    -972.540     290.805
  C     -334.531    -970.876     291.399
  O     -333.355    -971.459     290.789
  C     -335.169    -969.974     290.348
  O     -335.902    -968.894     290.959
  C     -333.968    -969.503     289.550
  O     -333.249    -968.470     290.271
  C     -333.136    -970.805     289.492
  N     -333.425    -971.773     288.416
  C     -333.075    -971.483     287.101
  O     -332.527    -970.432     286.746
  N     -333.364    -972.445     286.160
  C     -333.801    -973.715     286.419
  O     -333.990    -974.546     285.556
  C     -334.007    -974.025     287.848
  C     -333.822    -973.063     288.757
  O     -337.955    -973.554     292.244
  O     -337.991    -973.998     289.716
  H     -332.494    -968.233     289.725
  H     -338.905    -973.680     292.069
  H     -333.188    -972.210     285.203
  H     -334.306    -975.040     288.095
  H     -333.977    -973.297     289.813
  H     -332.063    -970.568     289.429
  H     -334.261    -969.072     288.599
  H     -335.821    -970.544     289.686
  H     -334.195    -970.271     292.254
  H     -334.893    -972.749     292.425
  H     -336.194    -971.574     292.614
  P     -337.420    -968.630     290.543
  C     -338.005    -968.220     293.009
  O     -338.032    -967.697     291.697
  O     -338.217    -969.845     290.186
  O     -337.302    -967.626     289.297
  H     -337.338    -968.100     288.445
  H     -338.284    -967.447     293.709
  H     -336.996    -968.590     293.257
  H     -338.713    -969.063     293.085
  H     -335.593    -976.435     292.705
  H     -337.219    -975.833     292.921
  H     -335.852    -974.799     293.262

 3  4  5  6  7  8  9  10  11  12  13  23  28  29  30  31  32 0
 6-311+G(2d,p)
 ****
 33  34 0
 6-311+G(2d,p)
 ****
 1  2  14  15  16  17  18  19  20  21  22  24  25  26  27 0
 3-21G
 ****
 35  36  37  38  39  40  41  42  43  44  45 0
 3-21G
 ****


