%nproc=1
%NoSave
%Mem=1900MB
#P OB98/GEN NMR

erre ene a

0 1
  C       72.566    -329.556    -243.634
  O       72.252    -329.581    -242.241
  P       73.471    -329.286    -241.237
  C       73.710    -331.764    -240.492
  O       74.330    -330.635    -241.092
  C       74.760    -332.740    -239.958
  O       75.614    -333.250    -241.000
  C       75.691    -332.120    -238.925
  O       75.049    -332.074    -237.661
  C       76.874    -333.076    -238.959
  O       76.644    -334.228    -238.120
  C       76.926    -333.497    -240.438
  N       81.886    -332.609    -241.020
  C       81.214    -333.247    -239.993
  N       81.972    -333.739    -238.994
  N       79.913    -333.389    -239.956
  C       79.281    -332.849    -241.024
  C       79.838    -332.220    -242.112
  C       81.276    -332.065    -242.144
  O       81.918    -331.530    -243.037
  N       78.880    -331.858    -243.029
  C       77.739    -332.159    -242.430
  N       77.931    -332.816    -241.240
  O       72.750    -329.136    -239.819
  O       74.253    -328.068    -241.591
  H       77.407    -334.831    -238.191
  H       72.786    -328.204    -239.524
  H       82.885    -332.519    -240.992
  H       76.760    -331.941    -242.826
  H       77.128    -334.568    -240.545
  H       77.788    -332.607    -238.590
  H       82.982    -333.666    -238.958
  H       76.005    -331.123    -239.249
  H       81.500    -334.214    -238.233
  H       74.222    -333.590    -239.513
  H       73.070    -332.268    -241.217
  H       73.055    -331.417    -239.686
  P       74.654    -330.634    -237.074
  C       76.701    -329.851    -235.681
  O       76.006    -329.795    -236.910
  O       74.219    -330.961    -235.571
  O       73.557    -329.946    -237.816
  H       73.400    -330.476    -235.353
  H       77.767    -329.705    -235.871
  H       76.559    -330.814    -235.183
  H       76.341    -329.051    -235.026
  H       71.684    -329.765    -244.202
  H       73.310    -330.296    -243.845
  H       72.940    -328.589    -243.898

 3  4  5  6  7  8  9  10  11  12  23  26  30  31 0
 6-311+G(2d,p)
 ****
 33  35  36  37  38 0
 6-311+G(2d,p)
 ****
 1  2  13  14  15  16  17  18  19  20  21  22  24  25 0
 3-21G
 ****
 27  28  29  32  34  39  40  41  42  43  44  45  46  47  48  49 0
 3-21G
 ****


