%nproc=1
%NoSave
%Mem=1900MB
#P OB98/GEN NMR

erre ene a

0 1
  C       89.684      19.222      82.752
  O       89.345      20.558      83.075
  P       87.947      20.923      83.781
  C       87.164      21.961      81.545
  O       86.885      21.040      82.585
  C       85.937      22.137      80.646
  O       85.448      20.823      80.269
  C       84.774      22.893      81.305
  O       84.134      23.661      80.279
  C       83.868      21.772      81.777
  O       82.527      22.197      81.970
  C       84.059      20.750      80.651
  N       83.697      19.397      81.055
  C       82.444      18.917      80.668
  O       81.666      19.623      80.029
  N       82.094      17.636      81.018
  C       82.888      16.927      81.759
  N       82.523      15.643      82.028
  C       84.171      17.434      82.281
  C       84.517      18.654      81.875
  O       87.993      22.102      84.690
  O       87.497      19.564      84.491
  H       82.014      21.444      82.319
  H       87.895      19.449      85.390
  H       84.786      16.817      82.919
  H       85.451      19.099      82.186
  H       83.475      21.043      79.771
  H       84.238      21.382      82.732
  H       85.103      23.561      82.105
  H       86.253      22.646      79.727
  H       81.729      15.279      81.512
  H       87.987      21.566      80.944
  H       83.211      14.952      82.305
  H       87.478      22.919      81.974
  P       83.583      25.122      80.656
  C       81.148      24.301      81.017
  O       82.279      24.940      81.568
  O       82.947      25.598      79.259
  O       84.598      26.117      81.117
  H       82.944      26.574      79.228
  H       80.363      24.259      81.778
  H       81.393      23.279      80.716
  H       80.771      24.862      80.157
  H       90.650      19.200      82.292
  H       88.958      18.823      82.075
  H       89.701      18.632      83.645

 3  4  5  6  7  8  9  10  11  12  13  23  27  28  29  30  32 0
 6-311+G(2d,p)
 ****
 34  35 0
 6-311+G(2d,p)
 ****
 1  2  14  15  16  17  18  19  20  21  22  24  25  26 0
 3-21G
 ****
 31  33  36  37  38  39  40  41  42  43  44  45  46 0
 3-21G
 ****


