%nproc=1
%NoSave
%Mem=1900MB
#P OB98/GEN NMR

erre ene a

0 1
  C      331.462     115.103     167.957
  O      330.547     114.449     168.836
  P      329.627     113.270     168.257
  C      327.342     114.017     169.177
  O      328.392     113.060     169.257
  C      326.349     113.830     170.324
  O      325.943     112.454     170.459
  C      326.918     114.216     171.679
  O      326.995     115.624     171.816
  C      325.943     113.525     172.620
  O      324.756     114.314     172.806
  C      325.601     112.234     171.845
  N      326.264     111.051     172.374
  C      325.613     110.406     173.432
  O      324.563     110.862     173.887
  N      326.177     109.268     173.956
  C      327.294     108.821     173.471
  N      327.807     107.689     174.024
  C      328.019     109.482     172.365
  C      327.456     110.584     171.876
  O      330.349     112.023     167.865
  O      328.931     113.958     166.985
  H      324.253     113.878     173.524
  H      328.749     113.269     166.316
  H      328.946     109.065     171.992
  H      327.923     111.132     171.066
  H      324.519     112.050     171.871
  H      326.378     113.361     173.611
  H      327.917     113.778     171.800
  H      325.458     114.435     170.108
  H      327.296     107.264     174.788
  H      326.827     113.911     168.218
  H      328.642     107.235     173.685
  H      327.777     115.022     169.192
  P      328.120     116.217     172.791
  C      326.942     118.014     174.241
  O      327.739     117.741     173.107
  O      329.396     116.347     171.828
  O      328.427     115.368     173.982
  H      330.208     116.176     172.338
  H      327.041     119.073     174.490
  H      327.256     117.420     175.105
  H      325.894     117.804     174.013
  H      331.995     115.859     168.495
  H      330.922     115.553     167.151
  H      332.155     114.387     167.566

 3  4  5  6  7  8  9  10  11  12  13  23  27  28  29  30  32 0
 6-311+G(2d,p)
 ****
 34  35 0
 6-311+G(2d,p)
 ****
 1  2  14  15  16  17  18  19  20  21  22  24  25  26 0
 3-21G
 ****
 31  33  36  37  38  39  40  41  42  43  44  45  46 0
 3-21G
 ****


