%nproc=1
%NoSave
%Mem=1900MB
#P OB98/GEN NMR

erre ene a

0 1
  C      788.633     366.732    -215.478
  O      789.571     367.352    -216.335
  H      787.668     367.238    -215.591
  H      788.953     366.827    -214.431
  H      788.509     365.685    -215.750
  P      791.069     366.783    -216.288
  C      791.684     368.788    -214.764
  O      791.682     367.371    -214.929
  C      792.242     369.173    -213.399
  O      791.292     368.853    -212.361
  C      793.533     368.451    -213.020
  O      794.659     369.103    -213.594
  C      793.517     368.600    -211.509
  O      794.012     369.910    -211.145
  C      792.025     368.481    -211.162
  N      791.141     365.420    -207.147
  C      791.744     366.612    -207.235
  N      791.988     367.357    -208.346
  C      791.528     366.722    -209.446
  C      790.890     365.496    -209.507
  C      790.683     364.831    -208.282
  N      790.061     363.598    -208.194
  N      790.562     365.180    -210.801
  C      790.956     366.225    -211.508
  N      791.575     367.171    -210.736
  O      791.880     366.996    -217.523
  O      790.801     365.247    -215.911
  H      794.884     370.008    -211.573
  H      790.096     365.182    -215.243
  H      792.079     367.043    -206.298
  H      790.772     366.355    -212.569
  H      791.729     369.187    -210.372
  H      794.161     367.869    -211.001
  H      793.494     367.381    -213.280
  H      792.388     370.269    -213.385
  H      790.669     369.179    -214.868
  H      790.135     363.109    -207.312
  H      789.856     363.116    -209.059
  H      792.299     369.213    -215.559
  P      795.885     368.260    -214.204
  C      797.205     368.437    -212.004
  O      796.583     367.568    -212.937
  O      796.787     369.045    -215.089
  O      795.181     367.032    -214.959
  H      795.815     366.623    -215.571
  H      797.632     367.861    -211.210
  H      796.477     369.111    -211.604
  H      797.976     368.994    -212.494

 6  7  8  9  10  11  12  13  14  15  25  28  32  33  34  35 0
 6-311+G(2d,p)
 ****
 36  39  40 0
 6-311+G(2d,p)
 ****
 1  2  3  4  5  16  17  18  19  20  21  22  23  24 0
 3-21G
 ****
 26  27  29  30  31  37  38  41  42  43  44  45  46  47 0
 3-21G
 ****
 48 0
 3-21G
 ****


