%nproc=1
%NoSave
%Mem=1900MB
#P OB98/GEN NMR

erre ene a

0 1
  C       56.752      42.480      23.710
  O       56.366      42.263      25.049
  H       57.834      42.348      23.633
  H       56.502      43.502      23.413
  H       56.265      41.772      23.037
  P       54.812      42.075      25.384
  C       54.455      39.886      26.702
  O       54.721      41.279      26.773
  C       55.223      39.130      27.793
  O       56.612      39.007      27.391
  C       55.210      39.894      29.122
  O       55.321      39.023      30.244
  C       56.467      40.745      29.031
  O       56.959      41.154      30.307
  C       57.410      39.813      28.274
  N       62.055      41.911      28.296
  C       61.297      41.457      29.357
  N       61.853      41.576      30.586
  N       60.097      40.955      29.229
  C       59.641      40.964      27.953
  C       60.288      41.408      26.823
  C       61.630      41.930      26.974
  O       62.336      42.366      26.070
  N       59.501      41.265      25.707
  C       58.381      40.742      26.161
  N       58.426      40.517      27.515
  O       54.328      40.976      24.323
  O       53.979      43.319      25.304
  H       56.228      41.599      30.773
  H       53.365      41.031      24.193
  H       62.984      42.261      28.446
  H       57.519      40.493      25.554
  H       57.926      39.138      28.968
  H       56.226      41.653      28.472
  H       62.680      42.132      30.742
  H       54.325      40.515      29.241
  H       61.207      41.546      31.379
  H       54.831      38.112      27.893
  H       54.767      39.551      25.710
  H       53.383      39.698      26.786
  P       53.986      38.606      31.024
  C       55.468      36.776      32.231
  O       54.348      37.632      32.236
  O       53.221      37.660      29.989
  O       53.139      39.761      31.458
  H       52.379      38.068      29.713
  H       55.500      36.225      33.148
  H       56.361      37.357      32.133
  H       55.393      36.096      31.408

 6  7  8  9  10  11  12  13  14  15  26  29  33  34 0
 6-311+G(2d,p)
 ****
 36  38  39  40  41 0
 6-311+G(2d,p)
 ****
 1  2  3  4  5  16  17  18  19  20  21  22  23  24  25 0
 3-21G
 ****
 27  28  30  31  32  35  37  42  43  44  45  46  47 0
 3-21G
 ****
 48  49 0
 3-21G
 ****


