%nproc=1
%NoSave
%Mem=1900MB
#P OB98/GEN NMR

erre ene a

0 1
  C     -895.700    -563.400    2043.367
  O     -896.970    -563.708    2043.949
  H     -895.060    -562.963    2044.133
  H     -895.820    -562.705    2042.556
  H     -895.210    -564.314    2043.009
  P     -898.020    -564.529    2043.080
  C     -899.150    -565.755    2045.077
  O     -898.330    -565.885    2043.903
  C     -898.250    -565.491    2046.307
  O     -897.510    -564.234    2046.097
  C     -899.010    -565.375    2047.632
  O     -898.150    -565.813    2048.678
  C     -899.220    -563.869    2047.704
  O     -899.690    -563.438    2048.977
  C     -897.840    -563.381    2047.251
  N     -897.740    -561.984    2046.897
  C     -897.680    -561.042    2047.956
  O     -897.720    -561.352    2049.146
  N     -897.610    -559.734    2047.553
  C     -897.550    -559.264    2046.289
  O     -897.460    -558.059    2046.011
  C     -897.620    -560.298    2045.251
  C     -897.700    -561.580    2045.571
  O     -897.680    -564.738    2041.638
  O     -899.380    -563.711    2043.258
  H     -899.530    -563.170    2042.457
  H     -899.640    -562.476    2049.018
  H     -897.570    -559.070    2048.317
  H     -897.580    -559.915    2044.204
  H     -897.740    -562.354    2044.807
  H     -897.080    -563.623    2048.024
  H     -900.000    -563.548    2046.982
  H     -899.940    -565.964    2047.650
  H     -897.460    -566.267    2046.355
  H     -899.680    -566.697    2045.223
  H     -899.830    -564.932    2044.934
  P     -898.040    -567.366    2049.123
  C     -895.450    -567.822    2049.012
  O     -896.740    -567.997    2048.396
  O     -899.270    -568.150    2048.916
  O     -897.620    -567.307    2050.700
  H     -897.930    -568.125    2051.110
  H     -894.701    -568.294    2048.411
  H     -895.457    -568.264    2049.986
  H     -895.234    -566.777    2049.096

 6  7  8  9  10  11  12  13  14  15  16  27  31  32  33  34  35 0
 6-311+G(2d,p)
 ****
 36  37 0
 6-311+G(2d,p)
 ****
 1  2  3  4  5  17  18  19  20  21  22  23  24  25 0
 3-21G
 ****
 26  28  29  30  38  39  40  41  42  43  44  45 0
 3-21G
 ****


