%nproc=1
%NoSave
%Mem=1900MB
#P OB98/GEN NMR

erre ene a

0 1
  C      692.307     -53.408     -78.333
  O      692.928     -53.811     -79.552
  P      692.609     -53.170     -80.979
  C      691.282     -55.319     -81.708
  O      691.332     -53.896     -81.577
  C      689.861     -55.845     -81.873
  O      689.305     -55.407     -83.133
  C      689.870     -57.401     -81.958
  O      689.912     -58.148     -80.745
  C      688.737     -57.766     -82.892
  O      687.525     -58.050     -82.199
  C      688.580     -56.514     -83.763
  N      688.145     -59.228     -88.058
  C      687.545     -59.448     -86.832
  N      686.764     -60.552     -86.712
  N      687.697     -58.643     -85.797
  C      688.580     -57.632     -86.025
  C      689.253     -57.338     -87.194
  C      689.029     -58.209     -88.359
  O      689.514     -58.043     -89.462
  N      690.083     -56.231     -87.031
  C      689.903     -55.899     -85.777
  N      689.016     -56.713     -85.120
  O      693.798     -53.022     -81.891
  O      692.087     -51.681     -80.617
  H      686.805     -58.139     -82.883
  H      692.379     -51.102     -81.368
  H      687.969     -59.868     -88.819
  H      690.414     -55.068     -85.283
  H      687.535     -56.191     -83.799
  H      688.993     -58.664     -83.493
  H      686.682     -61.243     -87.439
  H      690.798     -57.691     -82.469
  H      686.502     -60.814     -85.780
  H      689.194     -55.486     -81.092
  H      691.745     -55.724     -80.795
  H      691.909     -55.636     -82.552
  P      691.211     -58.822     -80.075
  C      690.599     -61.131     -81.032
  O      691.609     -60.114     -80.916
  O      690.673     -59.422     -78.689
  O      692.356     -57.860     -79.839
  H      691.431     -59.600     -78.087
  H      691.059     -62.081     -81.340
  H      689.878     -60.830     -81.784
  H      690.103     -61.256     -80.048
  H      692.695     -53.992     -77.525
  H      691.250     -53.557     -78.405
  H      692.510     -52.373     -78.155

 3  4  5  6  7  8  9  10  11  12  23  26  30  31 0
 6-311+G(2d,p)
 ****
 33  35  36  37  38 0
 6-311+G(2d,p)
 ****
 1  2  13  14  15  16  17  18  19  20  21  22  24  25 0
 3-21G
 ****
 27  28  29  32  34  39  40  41  42  43  44  45  46  47  48  49 0
 3-21G
 ****


