%nproc=1
%NoSave
%Mem=1900MB
#P OB98/GEN NMR

erre ene a

0 1
  C       19.586    -133.177     -59.873
  O       20.250    -134.445     -59.993
  P       21.725    -134.616     -60.601
  C       20.890    -135.868     -62.708
  O       21.593    -134.742     -62.196
  C       20.489    -135.644     -64.170
  O       21.610    -135.124     -64.923
  C       20.076    -136.891     -64.930
  O       18.797    -137.362     -64.548
  C       20.161    -136.403     -66.375
  O       18.960    -135.725     -66.768
  C       21.332    -135.402     -66.315
  N       22.522    -135.880     -67.000
  C       22.423    -136.050     -68.385
  O       21.348    -135.878     -68.957
  N       23.544    -136.428     -69.081
  C       24.635    -136.713     -68.441
  N       25.719    -137.065     -69.184
  C       24.741    -136.680     -66.970
  C       23.658    -136.255     -66.320
  O       22.513    -135.720     -59.975
  O       22.440    -133.200     -60.383
  H       23.406    -133.327     -60.331
  H       18.926    -134.891     -66.256
  H       25.657    -136.967     -66.473
  H       23.655    -136.186     -65.236
  H       21.031    -134.443     -66.748
  H       20.312    -137.226     -67.081
  H       20.826    -137.679     -64.768
  H       19.681    -134.897     -64.187
  H       25.614    -137.068     -70.192
  H       19.982    -136.011     -62.110
  H       26.621    -137.283     -68.787
  H       21.515    -136.761     -62.606
  P       18.747    -138.685     -63.644
  C       18.471    -140.258     -65.691
  O       19.234    -139.912     -64.550
  O       17.179    -138.950     -63.450
  O       19.444    -138.562     -62.329
  H       17.010    -139.262     -62.543
  H       19.132    -140.727     -66.425
  H       18.001    -139.380     -66.143
  H       17.698    -140.975     -65.404
  H       18.618    -133.321     -59.441
  H       19.482    -132.736     -60.842
  H       20.164    -132.530     -59.247

 3  4  5  6  7  8  9  10  11  12  13  24  27  28  29  30  32 0
 6-311+G(2d,p)
 ****
 34  35 0
 6-311+G(2d,p)
 ****
 1  2  14  15  16  17  18  19  20  21  22  23  25  26 0
 3-21G
 ****
 31  33  36  37  38  39  40  41  42  43  44  45  46 0
 3-21G
 ****


