%nproc=1
%NoSave
%Mem=1900MB
#P OB98/GEN NMR

erre ene a

0 1
  C      100.738     186.113    -259.203
  O      101.754     185.251    -259.674
  H      100.677     186.022    -258.114
  H       99.772     185.834    -259.633
  H      100.976     187.149    -259.458
  P      101.942     185.151    -261.263
  C      103.237     182.922    -260.919
  O      102.196     183.605    -261.606
  C      102.734     181.561    -260.450
  O      101.722     181.738    -259.426
  C      102.060     180.738    -261.540
  O      102.992     180.099    -262.395
  C      101.267     179.749    -260.707
  O      102.067     178.627    -260.306
  C      100.847     180.596    -259.487
  N       99.441     180.984    -259.555
  C       98.531     179.933    -259.623
  O       98.859     178.746    -259.626
  N       97.213     180.292    -259.732
  C       96.738     181.565    -259.826
  O       95.545     181.817    -259.976
  C       97.748     182.636    -259.764
  C       99.034     182.302    -259.640
  O      103.366     185.835    -261.506
  O      100.864     185.802    -262.064
  H      103.245     186.717    -261.904
  H      101.459     178.014    -259.843
  H       96.539     179.546    -259.781
  H       97.403     183.658    -259.839
  H       99.801     183.068    -259.604
  H      101.004     180.030    -258.559
  H      100.419     179.358    -261.265
  H      101.364     181.365    -262.111
  H      103.576     181.007    -260.012
  H      103.549     183.507    -260.045
  H      104.095     182.814    -261.590
  P      102.592     179.928    -263.942
  C      103.878     177.629    -263.926
  O      102.703     178.357    -264.249
  O      103.875     180.572    -264.649
  O      101.290     180.565    -264.282
  H      104.671     180.499    -264.093
  H      103.752     176.605    -264.208
  H      104.057     177.689    -262.873
  H      104.711     178.044    -264.453

 6  7  8  9  10  11  12  13  14  15  16  27  31  32  33  34  35 0
 6-311+G(2d,p)
 ****
 36  37 0
 6-311+G(2d,p)
 ****
 1  2  3  4  5  17  18  19  20  21  22  23  24  25 0
 3-21G
 ****
 26  28  29  30  38  39  40  41  42  43  44  45 0
 3-21G
 ****


