%nproc=1
%NoSave
%Mem=1900MB
#P OB98/GEN NMR

erre ene a

0 1
  C      209.865    -810.019     141.067
  O      210.617    -811.049     140.467
  H      209.178    -809.605     140.316
  H      210.517    -809.213     141.415
  H      209.275    -810.407     141.899
  P      211.750    -811.776     141.335
  C      210.902    -814.092     142.099
  O      210.996    -812.702     142.406
  C      209.442    -814.551     142.177
  O      208.684    -813.774     141.207
  C      209.277    -816.039     141.839
  O      208.554    -816.763     142.839
  C      208.690    -816.021     140.428
  O      207.915    -817.153     140.093
  C      207.925    -814.690     140.392
  N      207.746    -814.148     139.048
  C      206.595    -814.518     138.357
  O      205.709    -815.246     138.800
  N      206.470    -814.004     137.092
  C      207.370    -813.188     136.458
  O      207.201    -812.757     135.331
  C      208.575    -812.856     137.236
  C      208.710    -813.348     138.469
  O      212.799    -810.881     141.910
  O      212.387    -812.847     140.325
  H      207.683    -817.076     139.142
  H      213.242    -812.511     139.990
  H      205.636    -814.252     136.586
  H      209.314    -812.221     136.756
  H      209.587    -813.118     139.067
  H      206.936    -814.801     140.841
  H      209.525    -815.970     139.716
  H      210.247    -816.545     141.815
  H      209.047    -814.309     143.172
  H      211.509    -814.635     142.829
  H      211.297    -814.277     141.094
  P      209.195    -817.332     144.185
  C      207.515    -816.398     145.960
  O      208.804    -816.347     145.380
  O      210.625    -817.754     144.089
  O      208.320    -818.654     144.483
  H      208.923    -819.296     144.913
  H      207.445    -815.667     146.739
  H      207.346    -817.372     146.369
  H      206.779    -816.193     145.211

 6  7  8  9  10  11  12  13  14  15  16  26  31  32  33  34  35 0
 6-311+G(2d,p)
 ****
 36  37 0
 6-311+G(2d,p)
 ****
 1  2  3  4  5  17  18  19  20  21  22  23  24  25 0
 3-21G
 ****
 27  28  29  30  38  39  40  41  42  43  44  45 0
 3-21G
 ****


