%nproc=1
%NoSave
%Mem=1900MB
#P OB98/GEN NMR

erre ene a

0 1
  C       49.736     119.787      18.777
  O       49.509     118.849      19.809
  P       49.066     119.320      21.272
  C       46.576     118.720      21.211
  O       47.530     119.772      21.205
  C       45.219     119.201      21.724
  O       44.247     118.132      21.590
  C       45.227     119.647      23.192
  O       44.358     120.781      23.295
  C       44.634     118.454      23.916
  O       44.087     118.804      25.180
  C       43.620     117.964      22.877
  N       43.220     116.584      23.098
  C       41.979     116.375      23.704
  O       41.337     117.329      24.144
  N       41.510     115.090      23.807
  C       42.292     114.098      23.509
  N       41.764     112.845      23.561
  C       43.698     114.280      23.102
  C       44.080     115.534      22.876
  O       49.975     120.309      21.922
  O       49.003     117.961      22.121
  H       49.547     118.063      22.926
  H       43.643     118.018      25.561
  H       44.347     113.424      22.987
  H       45.085     115.770      22.547
  H       42.725     118.598      22.885
  H       45.411     117.699      24.079
  H       46.224     119.923      23.547
  H       44.885     120.026      21.083
  H       40.785     112.762      23.804
  H       46.944     117.929      21.868
  H       42.177     112.063      23.055
  H       46.479     118.298      20.204
  P       44.460     121.702      24.607
  C       45.769     123.366      23.108
  O       45.641     122.758      24.376
  O       45.121     120.686      25.663
  O       43.174     122.231      25.152
  H       44.879     120.966      26.565
  H       46.660     123.998      23.113
  H       44.898     123.991      22.896
  H       45.881     122.609      22.327
  H       50.022     119.272      17.884
  H       50.518     120.456      19.069
  H       48.840     120.343      18.597

 3  4  5  6  7  8  9  10  11  12  13  24  27  28  29  30  32 0
 6-311+G(2d,p)
 ****
 34  35 0
 6-311+G(2d,p)
 ****
 1  2  14  15  16  17  18  19  20  21  22  23  25  26 0
 3-21G
 ****
 31  33  36  37  38  39  40  41  42  43  44  45  46 0
 3-21G
 ****


