%nproc=1
%NoSave
%Mem=1900MB
#P OB98/GEN NMR

erre ene a

0 1
  C     -131.999     -29.656      91.739
  O     -130.806     -29.070      92.217
  H     -131.743     -30.456      91.041
  H     -132.605     -28.912      91.215
  H     -132.568     -30.080      92.570
  P     -130.957     -27.799      93.183
  C     -129.550     -26.368      91.533
  O     -130.758     -26.496      92.272
  C     -129.568     -25.058      90.750
  O     -130.686     -25.051      89.832
  C     -129.748     -23.819      91.616
  O     -128.549     -23.419      92.258
  C     -130.215     -22.811      90.581
  O     -129.111     -22.206      89.893
  C     -131.061     -23.674      89.628
  N     -132.492     -23.458      89.827
  C     -133.178     -22.920      88.742
  O     -132.638     -22.639      87.673
  N     -134.509     -22.677      88.939
  C     -135.192     -22.866      90.103
  O     -136.376     -22.574      90.229
  C     -134.412     -23.419      91.221
  C     -133.116     -23.682      91.038
  O     -129.626     -27.852      94.069
  O     -132.191     -27.792      94.024
  H     -129.843     -28.152      94.971
  H     -129.493     -21.490      89.348
  H     -135.024     -22.290      88.164
  H     -134.924     -23.580      92.162
  H     -132.517     -24.080      91.850
  H     -130.823     -23.437      88.583
  H     -130.782     -22.009      91.048
  H     -130.552     -23.980      92.344
  H     -128.641     -24.988      90.165
  H     -129.459     -27.200      90.829
  H     -128.704     -26.399      92.225
  P     -128.673     -22.483      93.555
  C     -127.492     -20.520      92.260
  O     -128.605     -20.976      93.013
  O     -127.249     -22.736      94.237
  O     -129.852     -22.812      94.406
  H     -126.572     -22.980      93.582
  H     -127.637     -19.494      91.994
  H     -127.397     -21.109      91.371
  H     -126.602     -20.614      92.846

 6  7  8  9  10  11  12  13  14  15  16  27  31  32  33  34  35 0
 6-311+G(2d,p)
 ****
 36  37 0
 6-311+G(2d,p)
 ****
 1  2  3  4  5  17  18  19  20  21  22  23  24  25 0
 3-21G
 ****
 26  28  29  30  38  39  40  41  42  43  44  45 0
 3-21G
 ****


