%nproc=1
%NoSave
%Mem=1900MB
#P OB98/GEN NMR

erre ene a

0 1
  C      291.445     139.270     113.937
  O      291.761     140.658     114.120
  P      291.695     141.402     115.542
  C      289.148     141.620     115.959
  O      290.352     140.935     116.288
  C      288.034     141.275     116.949
  O      287.685     139.875     116.843
  C      288.395     141.458     118.416
  O      288.443     142.821     118.796
  C      287.283     140.654     119.097
  O      286.092     141.441     119.256
  C      287.033     139.520     118.085
  N      287.490     138.224     118.563
  C      286.737     137.631     119.581
  O      285.792     138.233     120.087
  N      287.088     136.374     120.006
  C      288.156     135.808     119.538
  N      288.446     134.555     119.986
  C      289.052     136.457     118.563
  C      288.660     137.650     118.122
  O      291.853     142.883     115.456
  O      292.869     140.747     116.413
  H      293.167     141.384     117.090
  H      285.731     141.591     118.359
  H      289.957     135.967     118.230
  H      289.255     138.191     117.391
  H      285.964     139.460     117.843
  H      287.576     140.309     120.093
  H      289.358     140.978     118.615
  H      287.151     141.880     116.694
  H      287.802     134.133     120.646
  H      288.837     141.310     114.952
  H      289.239     134.016     119.670
  H      289.340     142.699     115.942
  P      289.883     143.533     118.760
  C      290.244     144.148     121.256
  O      290.582     143.292     120.181
  O      289.527     145.095     118.767
  O      290.721     143.172     117.582
  H      290.141     145.574     118.179
  H      290.386     143.606     122.194
  H      289.207     144.487     121.199
  H      290.910     145.014     121.247
  H      291.563     139.010     112.906
  H      290.433     139.092     114.236
  H      292.103     138.673     114.533

 3  4  5  6  7  8  9  10  11  12  13  24  27  28  29  30  32 0
 6-311+G(2d,p)
 ****
 34  35 0
 6-311+G(2d,p)
 ****
 1  2  14  15  16  17  18  19  20  21  22  23  25  26 0
 3-21G
 ****
 31  33  36  37  38  39  40  41  42  43  44  45  46 0
 3-21G
 ****


