%nproc=1
%NoSave
%Mem=1900MB
#P OB98/GEN NMR

erre ene a

0 1
  C     -627.848     523.443     192.356
  O     -628.764     524.527     192.364
  P     -628.432     525.938     191.689
  C     -630.910     526.739     191.712
  O     -629.576     526.982     192.139
  C     -631.808     527.979     191.798
  O     -631.211     529.056     191.039
  C     -633.169     527.694     191.151
  O     -634.187     527.043     191.902
  C     -633.577     529.007     190.506
  O     -634.498     529.756     191.314
  C     -632.251     529.769     190.353
  N     -633.166     532.259     186.029
  C     -633.622     532.532     187.301
  N     -634.577     533.476     187.396
  N     -633.183     531.924     188.376
  C     -632.290     530.934     188.111
  C     -631.763     530.572     186.898
  C     -632.226     531.284     185.718
  O     -631.910     531.007     184.564
  N     -630.940     529.476     186.997
  C     -631.008     529.145     188.265
  N     -631.846     529.972     188.974
  O     -627.995     525.921     190.259
  O     -627.164     526.418     192.572
  H     -635.165     529.145     191.659
  H     -626.578     526.930     191.988
  H     -633.599     532.698     185.235
  H     -630.496     528.301     188.724
  H     -632.324     530.751     190.822
  H     -634.090     528.822     189.563
  H     -635.040     533.858     186.586
  H     -632.981     527.018     190.310
  H     -635.048     533.589     188.292
  H     -631.884     528.344     192.825
  H     -631.310     525.922     192.333
  H     -630.893     526.372     190.678
  P     -635.526     526.400     191.303
  C     -635.554     524.969     193.413
  O     -636.338     525.724     192.515
  O     -635.027     525.148     190.449
  O     -636.338     527.322     190.440
  H     -635.705     524.903     189.780
  H     -636.213     524.308     194.000
  H     -635.022     525.638     194.100
  H     -634.817     524.353     192.887
  H     -628.281     522.606     192.863
  H     -626.947     523.734     192.854
  H     -627.625     523.172     191.345

 3  4  5  6  7  8  9  10  11  12  23  26  30  31 0
 6-311+G(2d,p)
 ****
 33  35  36  37  38 0
 6-311+G(2d,p)
 ****
 1  2  13  14  15  16  17  18  19  20  21  22  24  25 0
 3-21G
 ****
 27  28  29  32  34  39  40  41  42  43  44  45  46  47  48  49 0
 3-21G
 ****


