%nproc=1
%NoSave
%Mem=1900MB
#P OB98/GEN NMR

erre ene a

0 1
  C      380.104       2.547    -130.880
  O      380.330       3.907    -130.567
  H      381.055       2.087    -131.163
  H      379.408       2.466    -131.721
  H      379.700       2.017    -130.012
  P      379.080       4.743    -130.012
  C      377.679       4.482    -132.195
  O      377.789       4.207    -130.808
  C      376.380       3.893    -132.742
  O      376.205       4.344    -134.112
  C      376.371       2.356    -132.763
  O      375.058       1.889    -132.454
  C      376.709       2.025    -134.209
  O      376.267       0.739    -134.622
  C      376.012       3.179    -134.941
  N      376.546       3.401    -136.281
  C      376.202       2.486    -137.267
  O      375.420       1.546    -137.115
  N      376.798       2.677    -138.488
  C      377.697       3.658    -138.800
  O      378.218       3.765    -139.907
  C      378.031       4.584    -137.711
  C      377.451       4.418    -136.520
  O      379.306       6.205    -130.634
  O      378.922       4.771    -128.531
  H      379.835       6.756    -130.023
  H      376.267       0.723    -135.602
  H      376.559       2.024    -139.220
  H      378.749       5.368    -137.922
  H      377.682       5.079    -135.696
  H      374.932       2.992    -134.998
  H      377.793       2.075    -134.363
  H      377.093       1.918    -132.069
  H      375.534       4.283    -132.159
  H      378.531       4.032    -132.717
  H      377.697       5.569    -132.352
  P      374.725       1.584    -130.911
  C      374.463      -1.006    -131.165
  O      375.217       0.078    -130.644
  O      373.132       1.484    -130.941
  O      375.282       2.618    -129.981
  H      372.784       1.069    -131.751
  H      374.931      -1.929    -130.894
  H      374.417      -0.929    -132.231
  H      373.472      -0.977    -130.762

 6  7  8  9  10  11  12  13  14  15  16  27  31  32  33  34  35 0
 6-311+G(2d,p)
 ****
 36  37 0
 6-311+G(2d,p)
 ****
 1  2  3  4  5  17  18  19  20  21  22  23  24  25 0
 3-21G
 ****
 26  28  29  30  38  39  40  41  42  43  44  45 0
 3-21G
 ****


