%nproc=1
%NoSave
%Mem=1900MB
#P OB98/GEN NMR

erre ene a

0 1
  C      -20.025     -37.181      19.020
  O      -20.467     -38.524      18.958
  P      -19.590     -39.621      18.190
  C      -20.761     -39.400      15.876
  O      -19.588     -39.217      16.639
  C      -20.427     -39.744      14.419
  O      -19.545     -38.713      13.910
  C      -19.683     -41.061      14.226
  O      -19.807     -41.456      12.858
  C      -18.254     -40.655      14.511
  O      -17.313     -41.577      13.967
  C      -18.191     -39.221      13.928
  N      -17.326     -38.345      14.738
  C      -16.089     -38.006      14.197
  O      -15.739     -38.340      13.066
  N      -15.233     -37.341      15.032
  C      -15.482     -37.039      16.339
  O      -14.614     -36.732      17.146
  C      -16.878     -37.206      16.773
  C      -17.719     -37.866      15.974
  O      -20.521     -40.921      18.245
  O      -18.245     -39.876      18.779
  H      -17.458     -42.436      14.427
  H      -20.257     -41.493      18.990
  H      -14.287     -37.224      14.689
  H      -17.153     -36.840      17.753
  H      -18.741     -38.051      16.291
  H      -17.802     -39.222      12.902
  H      -18.100     -40.626      15.596
  H      -20.018     -41.867      14.886
  H      -21.346     -39.727      13.822
  H      -21.370     -38.493      15.929
  H      -21.369     -40.206      16.302
  P      -20.089     -43.003      12.548
  C      -17.657     -43.821      12.625
  O      -18.917     -43.829      13.265
  O      -20.336     -43.349      11.117
  O      -21.362     -43.329      13.467
  H      -21.801     -44.138      13.145
  H      -16.876     -43.931      13.382
  H      -17.491     -42.890      12.077
  H      -17.600     -44.665      11.932
  H      -20.734     -36.597      19.569
  H      -19.933     -36.790      18.028
  H      -19.074     -37.141      19.509

 3  4  5  6  7  8  9  10  11  12  13  23  28  29  30  31  32 0
 6-311+G(2d,p)
 ****
 33  34 0
 6-311+G(2d,p)
 ****
 1  2  14  15  16  17  18  19  20  21  22  24  25  26  27 0
 3-21G
 ****
 35  36  37  38  39  40  41  42  43  44  45 0
 3-21G
 ****


