%nproc=1
%NoSave
%Mem=1900MB
#P OB98/GEN NMR

erre ene a

0 1
  C      265.777     243.376     258.663
  O      267.120     243.809     258.718
  H      265.734     242.434     258.114
  H      265.169     244.118     258.139
  H      265.382     243.216     259.671
  P      267.434     245.071     259.658
  C      268.726     243.683     261.430
  O      267.599     244.499     261.149
  C      269.329     244.066     262.781
  O      270.009     245.336     262.685
  C      268.309     244.212     263.904
  O      267.970     242.956     264.478
  C      269.093     245.068     264.884
  O      270.053     244.253     265.585
  C      269.813     246.044     263.944
  N      268.199     250.411     265.945
  C      268.918     249.383     266.523
  N      269.247     249.535     267.823
  N      269.278     248.299     265.887
  C      268.872     248.278     264.596
  C      268.157     249.236     263.911
  C      267.771     250.433     264.624
  O      267.154     251.383     264.154
  N      267.940     248.865     262.610
  C      268.503     247.678     262.512
  N      269.077     247.273     263.691
  O      266.033     245.848     259.714
  O      268.530     245.965     259.187
  H      270.599     244.858     266.119
  H      266.207     246.808     259.743
  H      267.937     251.219     266.485
  H      268.526     247.075     261.615
  H      270.802     246.332     264.316
  H      268.459     245.534     265.637
  H      268.959     250.321     268.385
  H      267.420     244.759     263.571
  H      269.803     248.810     268.259
  H      270.083     243.310     263.038
  H      269.478     243.824     260.647
  H      268.414     242.636     261.442
  P      266.658     242.892     265.404
  C      265.174     242.135     263.413
  O      265.417     243.118     264.411
  O      266.730     244.265     266.224
  O      266.578     241.704     266.300
  H      266.220     244.186     267.054
  H      264.322     242.420     262.832
  H      264.988     241.191     263.880
  H      266.030     242.055     262.775

 6  7  8  9  10  11  12  13  14  15  26  29  33  34 0
 6-311+G(2d,p)
 ****
 36  38  39  40  41 0
 6-311+G(2d,p)
 ****
 1  2  3  4  5  16  17  18  19  20  21  22  23  24  25 0
 3-21G
 ****
 27  28  30  31  32  35  37  42  43  44  45  46  47 0
 3-21G
 ****
 48  49 0
 3-21G
 ****


