%nproc=1
%NoSave
%Mem=1900MB
#P OB98/GEN NMR

erre ene a

0 1
  C      177.420     192.914     119.319
  O      176.529     193.303     118.289
  P      175.258     192.358     118.020
  C      173.832     193.221     120.022
  O      173.978     193.123     118.610
  C      172.935     194.405     120.374
  O      173.664     195.640     120.232
  C      171.705     194.555     119.486
  O      170.712     193.602     119.825
  C      171.328     196.004     119.777
  O      170.633     196.090     121.033
  C      172.704     196.677     119.888
  N      173.013     201.122     117.365
  C      172.511     200.806     118.579
  N      172.444     199.597     119.172
  C      172.978     198.653     118.382
  C      173.507     198.819     117.113
  C      173.519     200.125     116.601
  N      174.027     200.440     115.359
  N      173.937     197.612     116.599
  C      173.683     196.736     117.548
  N      173.117     197.316     118.650
  O      175.476     191.154     119.048
  O      175.121     191.875     116.609
  H      169.829     195.539     120.957
  H      175.149     190.312     118.674
  H      172.108     201.638     119.150
  H      173.893     195.676     117.485
  H      172.740     197.436     120.678
  H      170.677     196.439     119.012
  H      171.980     194.445     118.430
  H      172.634     194.302     121.425
  H      174.813     193.373     120.480
  H      173.862     201.371     115.010
  H      174.273     199.678     114.739
  H      173.412     192.285     120.401
  P      169.728     193.119     118.650
  C      171.057     190.922     118.555
  O      169.784     191.515     118.742
  O      170.603     193.426     117.350
  O      168.367     193.724     118.680
  H      171.510     193.088     117.430
  H      170.964     189.844     118.694
  H      171.769     191.317     119.287
  H      171.416     191.119     117.539
  H      178.215     193.626     119.391
  H      177.824     191.949     119.095
  H      176.893     192.873     120.249

 3  4  5  6  7  8  9  10  11  12  22  25  29  30  31  32 0
 6-311+G(2d,p)
 ****
 33  36  37 0
 6-311+G(2d,p)
 ****
 1  2  13  14  15  16  17  18  19  20  21  23  24  26 0
 3-21G
 ****
 27  28  34  35  38  39  40  41  42  43  44  45  46  47  48 0
 3-21G
 ****


