%nproc=1
%NoSave
%Mem=1900MB
#P OB98/GEN NMR

erre ene a

0 1
  C       78.609     333.061     111.996
  O       78.126     333.388     113.282
  H       79.687     332.891     112.060
  H       78.425     333.878     111.294
  H       78.135     332.143     111.634
  P       76.585     333.795     113.437
  C       76.057     332.289     115.471
  O       75.839     332.535     114.089
  C       74.848     331.573     116.093
  O       73.727     332.501     116.146
  C       74.383     330.339     115.301
  O       73.811     329.418     116.241
  C       73.307     330.940     114.418
  O       72.506     329.944     113.831
  C       72.642     331.901     115.407
  N       71.810     332.895     114.747
  C       70.750     333.410     115.494
  O       70.550     333.013     116.645
  N       69.921     334.338     114.917
  C       70.098     334.673     113.675
  N       69.235     335.585     113.156
  C       71.171     334.107     112.830
  C       71.986     333.236     113.425
  O       75.932     334.344     112.213
  O       76.588     334.868     114.627
  H       71.951     329.496     114.508
  H       76.469     335.765     114.262
  H       71.264     334.403     111.797
  H       72.802     332.764     112.886
  H       72.020     331.350     116.126
  H       73.759     331.503     113.592
  H       75.191     329.859     114.749
  H       75.090     331.309     117.131
  H       68.508     335.939     113.769
  H       76.208     333.257     115.959
  H       69.261     335.903     112.200
  H       76.955     331.678     115.611
  P       74.039     327.835     116.159
  C       75.462     328.022     118.304
  O       75.339     327.439     117.008
  O       74.036     327.295     114.764
  O       72.835     327.196     117.000
  H       72.608     326.326     116.623
  H       76.366     327.681     118.764
  H       74.625     327.735     118.905
  H       75.488     329.088     118.215

 6  7  8  9  10  11  12  13  14  15  16  26  30  31  32  33  35 0
 6-311+G(2d,p)
 ****
 37  38 0
 6-311+G(2d,p)
 ****
 1  2  3  4  5  17  18  19  20  21  22  23  24  25 0
 3-21G
 ****
 27  28  29  34  36  39  40  41  42  43  44  45  46 0
 3-21G
 ****


