%nproc=1
%NoSave
%Mem=1900MB
#P OB98/GEN NMR

erre ene a

0 1
  C     -144.129    -186.200    -207.770
  O     -145.183    -186.051    -206.834
  P     -146.442    -185.141    -207.237
  C     -146.795    -182.537    -207.295
  O     -145.899    -183.636    -207.336
  C     -146.058    -181.237    -207.636
  O     -145.169    -180.898    -206.532
  C     -145.203    -181.306    -208.908
  O     -145.270    -180.016    -209.531
  C     -143.809    -181.564    -208.367
  O     -142.789    -181.187    -209.274
  C     -143.846    -180.732    -207.077
  N     -142.833    -181.134    -206.098
  C     -141.518    -181.254    -206.536
  O     -141.163    -181.070    -207.699
  N     -140.607    -181.636    -205.583
  C     -140.888    -181.962    -204.284
  O     -140.033    -182.311    -203.481
  C     -142.299    -181.858    -203.893
  C     -143.191    -181.448    -204.799
  O     -147.285    -185.166    -205.881
  O     -147.170    -185.626    -208.445
  H     -146.729    -185.170    -205.086
  H     -142.948    -180.264    -209.544
  H     -139.641    -181.697    -205.869
  H     -142.563    -182.124    -202.877
  H     -144.239    -181.364    -204.534
  H     -143.724    -179.668    -207.316
  H     -143.694    -182.634    -208.149
  H     -145.549    -182.075    -209.605
  H     -146.801    -180.434    -207.713
  H     -147.221    -182.454    -206.290
  H     -147.617    -182.716    -207.994
  P     -144.790    -179.888    -211.063
  C     -142.706    -178.862    -212.271
  O     -143.363    -179.163    -211.062
  O     -145.779    -178.729    -211.575
  O     -144.906    -181.144    -211.867
  H     -145.809    -177.969    -210.973
  H     -141.947    -178.094    -212.078
  H     -143.403    -178.482    -213.021
  H     -142.206    -179.759    -212.651
  H     -143.371    -186.831    -207.356
  H     -143.712    -185.240    -207.993
  H     -144.509    -186.641    -208.668

 3  4  5  6  7  8  9  10  11  12  13  24  28  29  30  31  32 0
 6-311+G(2d,p)
 ****
 33  34 0
 6-311+G(2d,p)
 ****
 1  2  14  15  16  17  18  19  20  21  22  23  25  26  27 0
 3-21G
 ****
 35  36  37  38  39  40  41  42  43  44  45 0
 3-21G
 ****


