%nproc=1
%NoSave
%Mem=1900MB
#P OB98/GEN NMR

erre ene a

0 1
  C      -93.079     408.457     464.364
  O      -94.159     409.309     464.700
  H      -92.325     409.044     463.837
  H      -93.425     407.656     463.703
  H      -92.629     408.030     465.261
  P      -95.331     408.734     465.631
  C      -94.297     408.941     467.985
  O      -94.630     408.072     466.910
  C      -94.959     408.460     469.273
  O      -96.384     408.711     469.224
  C      -94.818     406.957     469.511
  O      -93.519     406.620     469.953
  C      -95.926     406.727     470.528
  O      -95.497     407.068     471.852
  C      -97.020     407.708     470.041
  N      -98.085     407.018     469.298
  C      -98.804     406.058     470.000
  O      -98.598     405.780     471.184
  N      -99.742     405.369     469.281
  C      -99.919     405.450     467.923
  O     -100.589     404.645     467.289
  C      -99.178     406.523     467.246
  C      -98.296     407.240     467.955
  O      -96.345     407.879     464.944
  O      -96.004     410.056     466.241
  H      -96.835     410.246     465.765
  H      -94.739     406.478     472.048
  H     -100.238     404.641     469.768
  H      -99.343     406.668     466.190
  H      -97.704     408.012     467.465
  H      -97.477     408.228     470.892
  H      -96.249     405.684     470.534
  H      -95.060     406.413     468.586
  H      -94.542     409.031     470.116
  H      -94.660     409.950     467.745
  H      -93.208     408.972     468.094
  P      -92.945     405.140     469.718
  C      -91.874     405.475     467.403
  O      -92.926     404.856     468.136
  O      -93.584     404.072     470.538
  O      -91.386     405.266     470.075
  H      -91.149     404.555     470.697
  H      -91.961     405.218     466.368
  H      -90.931     405.135     467.777
  H      -91.940     406.537     467.513

 6  7  8  9  10  11  12  13  14  15  16  27  31  32  33  34  35 0
 6-311+G(2d,p)
 ****
 36  37 0
 6-311+G(2d,p)
 ****
 1  2  3  4  5  17  18  19  20  21  22  23  24  25 0
 3-21G
 ****
 26  28  29  30  38  39  40  41  42  43  44  45 0
 3-21G
 ****


