%nproc=1
%NoSave
%Mem=1900MB
#P OB98/GEN NMR

erre ene a

0 1
  C      150.437    -202.800     480.333
  O      149.969    -204.005     479.760
  H      150.501    -202.930     481.417
  H      149.745    -201.982     480.116
  H      151.432    -202.562     479.946
  P      149.768    -204.014     478.168
  C      151.376    -206.042     478.089
  O      150.103    -205.521     477.733
  C      151.380    -207.564     477.984
  O      150.876    -207.978     476.704
  C      152.759    -208.200     478.127
  O      153.094    -208.352     479.496
  C      152.525    -209.548     477.460
  O      151.884    -210.443     478.389
  C      151.558    -209.198     476.316
  N      151.256    -210.229     471.296
  C      150.578    -210.723     472.354
  N      150.748    -210.448     473.667
  C      151.731    -209.546     473.838
  C      152.511    -208.957     472.854
  C      152.238    -209.329     471.527
  N      152.933    -208.822     470.450
  N      153.425    -208.087     473.406
  C      153.161    -208.103     474.696
  N      152.169    -208.998     475.013
  O      150.481    -202.938     477.421
  O      148.171    -203.972     478.063
  H      152.442    -210.471     479.188
  H      147.767    -204.546     478.737
  H      149.797    -211.442     472.118
  H      153.643    -207.476     475.440
  H      150.792    -209.972     476.184
  H      153.453    -210.027     477.146
  H      153.522    -207.648     477.567
  H      150.691    -207.955     478.746
  H      151.634    -205.741     479.111
  H      152.804    -209.284     469.562
  H      153.746    -208.254     470.636
  H      152.114    -205.610     477.405
  P      154.618    -208.254     479.993
  C      153.374    -207.485     482.104
  O      154.528    -208.135     481.588
  O      155.424    -207.206     479.307
  O      155.199    -209.727     479.773
  H      156.176    -209.706     479.791
  H      153.424    -207.465     483.173
  H      152.498    -208.017     481.798
  H      153.332    -206.483     481.730

 6  7  8  9  10  11  12  13  14  15  25  28  32  33  34  35 0
 6-311+G(2d,p)
 ****
 36  39  40 0
 6-311+G(2d,p)
 ****
 1  2  3  4  5  16  17  18  19  20  21  22  23  24 0
 3-21G
 ****
 26  27  29  30  31  37  38  41  42  43  44  45  46  47 0
 3-21G
 ****
 48 0
 3-21G
 ****


