%nproc=1
%NoSave
%Mem=1900MB
#P OB98/GEN NMR

erre ene a

0 1
  C      529.672     467.825    -898.150
  O      530.487     466.927    -897.420
  H      529.694     468.798    -897.660
  H      528.639     467.468    -898.170
  H      530.047     467.940    -899.170
  P      530.607     465.405    -897.900
  C      533.155     465.248    -898.180
  O      532.044     464.899    -897.370
  C      534.481     465.006    -897.450
  O      534.619     465.996    -896.390
  C      534.586     463.617    -896.810
  O      535.856     463.040    -897.120
  C      534.496     463.899    -895.310
  O      535.104     462.884    -894.520
  C      535.155     465.290    -895.250
  N      534.876     465.965    -893.990
  C      535.954     466.612    -893.380
  O      537.068     466.585    -893.900
  N      535.756     467.213    -892.160
  C      534.600     467.143    -891.580
  N      534.484     467.733    -890.360
  C      533.436     466.451    -892.180
  C      533.634     465.887    -893.380
  O      530.364     465.182    -899.360
  O      529.583     464.597    -896.970
  H      534.596     462.049    -894.640
  H      529.340     463.755    -897.410
  H      532.492     466.405    -891.660
  H      532.851     465.353    -893.890
  H      536.239     465.213    -895.370
  H      533.441     463.982    -895.020
  H      533.800     462.932    -897.130
  H      535.300     465.187    -898.140
  H      535.309     468.195    -889.990
  H      533.065     466.300    -898.480
  H      533.643     467.719    -889.810
  H      533.133     464.620    -899.080
  P      535.963     462.266    -898.510
  C      538.430     463.034    -898.780
  O      537.516     461.951    -898.800
  O      535.605     463.411    -899.590
  O      535.038     461.103    -898.640
  H      534.737     463.232    -900.000
  H      539.415     462.673    -898.988
  H      538.416     463.495    -897.815
  H      538.149     463.752    -899.522

 6  7  8  9  10  11  12  13  14  15  16  26  30  31  32  33  35 0
 6-311+G(2d,p)
 ****
 37  38 0
 6-311+G(2d,p)
 ****
 1  2  3  4  5  17  18  19  20  21  22  23  24  25 0
 3-21G
 ****
 27  28  29  34  36  39  40  41  42  43  44  45  46 0
 3-21G
 ****


