%nproc=1
%NoSave
%Mem=1900MB
#P OB98/GEN NMR

erre ene a

0 1
  C       -1.457      62.261     224.094
  O       -2.274      63.375     223.768
  P       -2.963      63.370     222.316
  C       -1.638      65.479     221.529
  O       -1.940      64.108     221.331
  C       -0.570      65.925     220.527
  O        0.588      65.072     220.620
  C       -1.019      65.876     219.074
  O       -1.772      67.032     218.747
  C        0.316      65.784     218.346
  O        0.926      67.084     218.225
  C        1.130      64.879     219.284
  N        2.721      61.411     215.970
  C        2.816      62.789     215.928
  N        3.470      63.314     214.869
  N        2.318      63.579     216.841
  C        1.681      62.916     217.833
  C        1.508      61.558     217.978
  C        2.108      60.694     216.989
  O        2.136      59.468     217.032
  N        0.784      61.260     219.104
  C        0.550      62.434     219.656
  N        1.090      63.470     218.935
  O       -4.165      64.411     222.484
  O       -3.426      62.030     221.835
  H        1.757      67.003     217.723
  H       -5.006      63.945     222.648
  H        3.139      60.850     215.248
  H        0.016      62.586     220.580
  H        2.187      65.169     219.320
  H        0.206      65.395     217.330
  H        3.859      62.768     214.115
  H       -1.606      64.968     218.883
  H        3.545      64.323     214.819
  H       -0.258      66.941     220.800
  H       -1.261      65.621     222.546
  H       -2.555      66.068     221.407
  P       -2.490      67.068     217.314
  C       -1.404      69.239     216.391
  O       -1.506      67.831     216.308
  O       -3.694      68.100     217.531
  O       -2.991      65.742     216.840
  H       -4.468      67.812     217.016
  H       -0.401      69.538     216.078
  H       -1.581      69.599     217.410
  H       -2.136      69.690     215.719
  H       -1.061      62.386     225.080
  H       -0.652      62.192     223.393
  H       -2.042      61.366     224.055

 3  4  5  6  7  8  9  10  11  12  23  26  30  31 0
 6-311+G(2d,p)
 ****
 33  35  36  37  38 0
 6-311+G(2d,p)
 ****
 1  2  13  14  15  16  17  18  19  20  21  22  24  25 0
 3-21G
 ****
 27  28  29  32  34  39  40  41  42  43  44  45  46  47  48  49 0
 3-21G
 ****


