%nproc=1
%NoSave
%Mem=1900MB
#P OB98/GEN NMR

erre ene a

0 1
  C     1185.665    -158.408     178.540
  O     1185.071    -159.183     177.509
  P     1184.728    -158.441     176.118
  C     1182.461    -159.712     175.925
  O     1183.736    -159.412     175.337
  C     1181.407    -159.943     174.863
  O     1181.090    -158.710     174.180
  C     1181.848    -160.901     173.749
  O     1181.688    -162.277     174.152
  C     1180.846    -160.551     172.665
  O     1179.573    -161.188     172.916
  C     1180.732    -159.022     172.820
  N     1181.178    -157.123     168.093
  C     1180.231    -157.873     168.666
  N     1180.168    -158.350     169.933
  C     1181.289    -158.004     170.605
  C     1182.375    -157.274     170.153
  C     1182.286    -156.802     168.811
  N     1183.261    -156.011     168.237
  N     1183.323    -157.134     171.120
  C     1182.838    -157.750     172.177
  N     1181.598    -158.282     171.914
  O     1186.106    -158.555     175.305
  O     1184.278    -157.015     176.260
  H     1179.714    -162.149     172.842
  H     1186.152    -157.862     174.619
  H     1179.372    -158.123     168.042
  H     1183.326    -157.831     173.141
  H     1179.714    -158.663     172.657
  H     1181.161    -160.886     171.667
  H     1182.847    -160.685     173.421
  H     1180.498    -160.305     175.354
  H     1182.153    -158.856     176.545
  H     1183.034    -155.570     167.362
  H     1183.976    -155.620     168.833
  H     1182.579    -160.586     176.581
  P     1182.946    -163.253     173.844
  C     1181.845    -164.653     171.928
  O     1182.277    -164.592     173.285
  O     1183.425    -163.640     175.304
  O     1183.994    -162.628     173.007
  H     1184.373    -163.891     175.274
  H     1181.725    -165.698     171.639
  H     1182.600    -164.178     171.260
  H     1180.905    -164.117     171.810
  H     1185.835    -159.025     179.397
  H     1185.010    -157.604     178.804
  H     1186.597    -158.011     178.196

 3  4  5  6  7  8  9  10  11  12  22  25  29  30  31  32 0
 6-311+G(2d,p)
 ****
 33  36  37 0
 6-311+G(2d,p)
 ****
 1  2  13  14  15  16  17  18  19  20  21  23  24  26 0
 3-21G
 ****
 27  28  34  35  38  39  40  41  42  43  44  45  46  47  48 0
 3-21G
 ****


