%nproc=1
%NoSave
%Mem=1900MB
#P OB98/GEN NMR

erre ene a

0 1
  C      626.055    -894.050     790.213
  O      624.710    -894.490     790.197
  P      623.605    -893.530     789.508
  C      623.168    -895.280     787.626
  O      623.565    -893.970     787.950
  C      621.702    -895.310     787.197
  O      621.461    -894.330     786.151
  C      621.218    -896.640     786.668
  O      620.891    -897.520     787.725
  C      620.017    -896.240     785.840
  O      618.850    -896.020     786.672
  C      620.498    -894.900     785.233
  N      620.139    -893.480     780.384
  C      619.246    -893.270     781.439
  N      618.129    -892.560     781.175
  N      619.462    -893.740     782.664
  C      620.602    -894.450     782.743
  C      621.549    -894.740     781.777
  C      621.348    -894.180     780.472
  O      622.129    -894.230     779.539
  N      622.587    -895.480     782.292
  C      622.257    -895.660     783.547
  N      621.084    -895.030     783.914
  O      624.373    -892.110     789.474
  O      622.295    -893.450     790.180
  H      618.611    -896.850     787.096
  H      624.077    -891.550     790.218
  H      619.956    -893.080     779.482
  H      622.844    -896.220     784.279
  H      619.680    -894.170     785.139
  H      619.732    -896.990     785.098
  H      617.916    -892.200     780.255
  H      621.983    -897.080     786.010
  H      617.500    -892.410     781.941
  H      621.099    -895.000     788.066
  H      623.305    -895.940     788.505
  H      623.802    -895.650     786.821
  P      621.910    -898.710     788.068
  C      622.503    -897.680     790.393
  O      622.969    -898.160     789.142
  O      622.774    -898.850     786.716
  O      621.266    -900.000     788.444
  H      622.987    -899.800     786.573
  H      623.296    -897.840     791.136
  H      621.582    -898.210     790.690
  H      622.297    -896.610     790.320
  H      626.665    -894.784     790.698
  H      626.121    -893.124     790.745
  H      626.396    -893.910     789.209

 3  4  5  6  7  8  9  10  11  12  23  26  30  31 0
 6-311+G(2d,p)
 ****
 33  35  36  37  38 0
 6-311+G(2d,p)
 ****
 1  2  13  14  15  16  17  18  19  20  21  22  24  25 0
 3-21G
 ****
 27  28  29  32  34  39  40  41  42  43  44  45  46  47  48  49 0
 3-21G
 ****


