%nproc=1
%NoSave
%Mem=1900MB
#P OB98/GEN NMR

erre ene a

0 1
  C      -57.890    -144.449     170.953
  O      -57.578    -143.200     170.362
  P      -57.365    -143.064     168.775
  C      -54.870    -143.249     169.422
  O      -55.889    -143.627     168.506
  C      -54.009    -144.462     169.767
  O      -54.778    -145.668     169.588
  C      -52.770    -144.627     168.895
  O      -51.753    -143.714     169.276
  C      -52.450    -146.101     169.124
  O      -51.769    -146.275     170.375
  C      -53.859    -146.722     169.208
  N      -54.277    -147.357     167.962
  C      -53.947    -148.708     167.811
  O      -53.349    -149.318     168.696
  N      -54.340    -149.355     166.665
  C      -54.979    -148.707     165.739
  N      -55.402    -149.416     164.658
  C      -55.295    -147.271     165.834
  C      -54.923    -146.666     166.960
  O      -57.622    -141.702     168.224
  O      -58.290    -144.202     168.148
  H      -50.934    -145.773     170.315
  H      -59.217    -143.907     167.971
  H      -55.817    -146.772     165.031
  H      -55.135    -145.617     167.117
  H      -53.901    -147.465     170.013
  H      -51.828    -146.539     168.339
  H      -53.023    -144.466     167.841
  H      -53.725    -144.392     170.828
  H      -55.318    -150.425     164.716
  H      -55.343    -142.875     170.337
  H      -56.134    -149.069     164.053
  H      -54.267    -142.449     168.983
  P      -51.177    -142.735     168.145
  C      -48.820    -143.635     168.748
  O      -49.752    -143.342     167.721
  O      -50.819    -141.404     168.959
  O      -52.121    -142.472     167.018
  H      -51.513    -140.731     168.830
  H      -48.020    -144.248     168.327
  H      -49.301    -144.190     169.560
  H      -48.388    -142.709     169.134
  H      -57.991    -144.328     172.011
  H      -57.105    -145.147     170.747
  H      -58.809    -144.816     170.547

 3  4  5  6  7  8  9  10  11  12  13  23  27  28  29  30  32 0
 6-311+G(2d,p)
 ****
 34  35 0
 6-311+G(2d,p)
 ****
 1  2  14  15  16  17  18  19  20  21  22  24  25  26 0
 3-21G
 ****
 31  33  36  37  38  39  40  41  42  43  44  45  46 0
 3-21G
 ****


