%nproc=1
%NoSave
%Mem=1900MB
#P OB98/GEN NMR

erre ene a

0 1
  C     -493.453     133.593     441.022
  O     -492.559     134.710     440.964
  P     -491.291     134.642     439.988
  C     -491.064     137.085     439.185
  O     -490.533     136.058     440.010
  C     -490.372     138.427     439.451
  O     -490.897     139.018     440.674
  C     -488.849     138.298     439.619
  O     -488.115     139.208     438.799
  C     -488.634     138.438     441.118
  O     -487.328     138.868     441.450
  C     -489.795     139.350     441.536
  N     -490.129     139.200     442.959
  C     -489.392     139.949     443.858
  O     -488.445     140.664     443.536
  N     -489.737     139.812     445.180
  C     -490.675     138.956     445.677
  O     -490.909     138.828     446.870
  C     -491.381     138.127     444.677
  C     -491.080     138.292     443.385
  O     -491.546     134.090     438.625
  O     -490.267     133.698     440.796
  H     -487.293     139.034     442.423
  H     -489.812     133.127     440.147
  H     -489.222     140.367     445.848
  H     -492.113     137.423     445.036
  H     -491.576     137.694     442.631
  H     -489.539     140.402     441.384
  H     -488.777     137.454     441.581
  H     -488.499     137.309     439.296
  H     -490.611     139.097     438.618
  H     -492.133     137.197     439.381
  H     -490.975     136.788     438.139
  P     -486.940     138.788     437.799
  C     -487.743     140.061     435.690
  O     -486.766     139.941     436.709
  O     -487.029     137.401     437.238
  O     -485.630     138.933     438.698
  H     -485.021     138.198     438.511
  H     -487.317     140.609     434.847
  H     -488.607     140.622     436.073
  H     -488.082     139.073     435.334
  H     -494.239     133.801     441.717
  H     -492.917     132.723     441.340
  H     -493.871     133.420     440.052

 3  4  5  6  7  8  9  10  11  12  13  23  28  29  30  31  32 0
 6-311+G(2d,p)
 ****
 33  34 0
 6-311+G(2d,p)
 ****
 1  2  14  15  16  17  18  19  20  21  22  24  25  26  27 0
 3-21G
 ****
 35  36  37  38  39  40  41  42  43  44  45 0
 3-21G
 ****


