%nproc=1
%NoSave
%Mem=1900MB
#P OB98/GEN NMR

erre ene a

0 1
  C       20.466     -10.225    -284.891
  O       21.564      -9.496    -284.370
  P       22.064      -8.140    -285.068
  C       22.523      -5.771    -284.173
  O       22.412      -7.154    -283.849
  C       22.966      -4.977    -282.943
  O       21.838      -4.874    -282.035
  C       24.096      -5.599    -282.121
  O       25.403      -5.316    -282.601
  C       23.886      -4.897    -280.781
  O       24.433      -3.567    -280.844
  C       22.359      -4.838    -280.680
  N       21.956      -6.930    -276.026
  C       22.546      -5.791    -276.458
  N       22.629      -5.315    -277.717
  C       21.976      -6.123    -278.572
  C       21.317      -7.310    -278.281
  C       21.325      -7.711    -276.934
  N       20.696      -8.861    -276.489
  N       20.783      -7.864    -279.427
  C       21.096      -7.021    -280.386
  N       21.810      -5.948    -279.923
  O       21.134      -7.593    -286.095
  O       23.505      -8.504    -285.656
  H       25.374      -3.658    -281.100
  H       23.771      -7.836    -286.320
  H       23.027      -5.190    -275.693
  H       20.838      -7.143    -281.424
  H       22.006      -3.909    -280.221
  H       24.381      -5.407    -279.948
  H       23.944      -6.679    -281.987
  H       23.234      -3.960    -283.266
  H       21.537      -5.413    -284.494
  H       20.643      -8.999    -275.496
  H       20.089      -9.353    -277.134
  H       23.221      -5.643    -285.002
  P       26.615      -6.173    -281.972
  C       29.024      -6.622    -282.908
  O       27.653      -6.391    -283.175
  O       26.193      -7.408    -281.256
  O       27.360      -5.107    -281.042
  H       27.796      -4.372    -281.515
  H       29.516      -6.905    -283.842
  H       29.150      -7.431    -282.188
  H       29.483      -5.707    -282.531
  H       20.294     -11.091    -284.286
  H       20.683     -10.528    -285.894
  H       19.593      -9.607    -284.886

 3  4  5  6  7  8  9  10  11  12  22  25  29  30  31  32 0
 6-311+G(2d,p)
 ****
 33  36  37 0
 6-311+G(2d,p)
 ****
 1  2  13  14  15  16  17  18  19  20  21  23  24  26 0
 3-21G
 ****
 27  28  34  35  38  39  40  41  42  43  44  45  46  47  48 0
 3-21G
 ****


