%nproc=1
%NoSave
%Mem=1900MB
#P OB98/GEN NMR

erre ene a

0 1
  C     -490.779     448.610     882.551
  O     -490.927     449.717     883.411
  H     -491.289     447.753     882.993
  H     -489.721     448.365     882.439
  H     -491.215     448.809     881.569
  P     -490.524     451.175     882.878
  C     -492.452     452.427     884.055
  O     -491.044     452.223     883.979
  C     -492.849     452.968     885.434
  O     -492.487     451.988     886.447
  C     -492.160     454.290     885.797
  O     -493.062     455.023     886.639
  C     -490.969     453.801     886.605
  O     -490.411     454.840     887.382
  C     -491.605     452.646     887.376
  N     -490.611     451.724     887.934
  C     -490.078     452.063     889.174
  O     -490.381     453.094     889.786
  N     -489.139     451.198     889.673
  C     -488.656     450.095     889.049
  O     -487.788     449.372     889.528
  C     -489.223     449.813     887.721
  C     -490.158     450.623     887.229
  O     -490.933     451.490     881.475
  O     -488.934     451.241     883.060
  H     -489.901     454.467     888.133
  H     -488.540     451.818     882.382
  H     -488.748     451.420     890.579
  H     -488.849     448.945     887.185
  H     -490.593     450.440     886.252
  H     -492.213     453.017     888.214
  H     -490.178     453.429     885.943
  H     -491.870     454.888     884.929
  H     -493.946     453.071     885.463
  H     -492.939     451.456     883.884
  H     -492.763     453.126     883.273
  P     -494.103     456.086     886.045
  C     -496.036     455.858     887.738
  O     -494.984     456.679     887.261
  O     -494.918     455.572     884.896
  O     -493.214     457.333     885.591
  H     -493.648     457.801     884.854
  H     -496.543     456.356     888.538
  H     -495.633     454.932     888.093
  H     -496.726     455.665     886.944

 6  7  8  9  10  11  12  13  14  15  16  26  31  32  33  34  35 0
 6-311+G(2d,p)
 ****
 36  37 0
 6-311+G(2d,p)
 ****
 1  2  3  4  5  17  18  19  20  21  22  23  24  25 0
 3-21G
 ****
 27  28  29  30  38  39  40  41  42  43  44  45 0
 3-21G
 ****


