%nproc=1
%NoSave
%Mem=1900MB
#P OB98/GEN NMR

erre ene a

0 1
  C      164.409     130.387     250.574
  O      163.991     131.304     251.581
  P      164.302     130.922     253.108
  C      163.332     129.186     254.817
  O      163.198     129.863     253.581
  C      162.175     128.192     255.032
  O      160.997     128.941     255.424
  C      161.758     127.399     253.797
  O      161.009     126.257     254.219
  C      160.840     128.377     253.098
  O      160.006     127.725     252.143
  C      160.105     129.046     254.283
  N      159.756     130.462     254.040
  C      158.483     130.901     254.394
  O      157.624     130.181     254.901
  N      158.197     132.210     254.114
  C      159.053     133.115     253.562
  O      158.717     134.251     253.252
  C      160.424     132.639     253.338
  C      160.703     131.357     253.570
  O      163.939     132.257     253.909
  O      165.710     130.492     253.341
  H      159.343     128.391     251.850
  H      164.752     132.713     254.189
  H      157.257     132.524     254.303
  H      161.151     133.349     252.961
  H      161.709     130.982     253.390
  H      159.172     128.517     254.519
  H      161.434     129.120     252.558
  H      162.586     127.086     253.155
  H      162.429     127.518     255.857
  H      163.368     129.909     255.634
  H      164.285     128.642     254.836
  P      161.228     124.880     253.428
  C      159.994     123.623     251.557
  O      160.099     124.828     252.290
  O      161.353     123.655     254.271
  O      162.564     125.162     252.584
  H      162.956     124.314     252.302
  H      158.959     123.501     251.230
  H      160.279     122.757     252.162
  H      160.641     123.680     250.679
  H      164.139     130.767     249.611
  H      163.932     129.442     250.731
  H      165.471     130.263     250.623

 3  4  5  6  7  8  9  10  11  12  13  23  28  29  30  31  32 0
 6-311+G(2d,p)
 ****
 33  34 0
 6-311+G(2d,p)
 ****
 1  2  14  15  16  17  18  19  20  21  22  24  25  26  27 0
 3-21G
 ****
 35  36  37  38  39  40  41  42  43  44  45 0
 3-21G
 ****


