%nproc=1
%NoSave
%Mem=1900MB
#P OB98/GEN NMR

erre ene a

0 1
  C     -259.569     480.695     250.573
  O     -260.150     480.900     249.281
  P     -260.022     479.690     248.232
  C     -258.085     478.571     246.895
  O     -258.485     479.623     247.765
  C     -257.031     479.063     245.899
  O     -257.579     480.055     245.011
  C     -255.824     479.736     246.548
  O     -254.896     478.779     247.052
  C     -255.236     480.487     245.360
  O     -254.422     479.591     244.574
  C     -256.486     480.904     244.573
  N     -255.263     485.758     243.738
  C     -254.619     484.598     243.349
  N     -253.495     484.757     242.608
  N     -255.029     483.398     243.655
  C     -256.176     483.387     244.371
  C     -256.908     484.464     244.821
  C     -256.428     485.793     244.504
  O     -256.947     486.851     244.853
  N     -258.027     484.062     245.519
  C     -257.983     482.743     245.467
  N     -256.873     482.285     244.790
  O     -260.774     480.256     246.940
  O     -260.613     478.405     248.706
  H     -254.970     478.806     244.388
  H     -261.131     479.517     246.404
  H     -254.896     486.657     243.483
  H     -258.727     482.078     245.888
  H     -256.370     480.742     243.495
  H     -254.595     481.319     245.660
  H     -253.166     485.652     242.276
  H     -256.141     480.448     247.318
  H     -253.028     483.922     242.284
  H     -256.701     478.200     245.300
  H     -258.950     478.190     246.346
  H     -257.700     477.739     247.495
  P     -254.602     478.810     248.631
  C     -253.934     480.721     250.254
  O     -253.975     480.255     248.919
  O     -253.363     477.808     248.782
  O     -255.764     478.409     249.480
  H     -253.369     477.394     249.667
  H     -253.620     479.928     250.941
  H     -254.924     481.088     250.546
  H     -253.219     481.548     250.318
  H     -259.720     481.567     251.174
  H     -258.520     480.512     250.467
  H     -260.033     479.853     251.043

 3  4  5  6  7  8  9  10  11  12  23  26  30  31  33  0
 6-311+G(2d,p)
 ****
 35  36  37  38 0
 6-311+G(2d,p)
 ****
 1  2  13  14  15  16  17  18  19  20  21  22  24  25  27  28  29 0
 3-21G
 ****
 32  34  39  40  41  42  43  44  45  46  47  48  49 0
 3-21G
 ****


