%nproc=1
%NoSave
%Mem=1900MB
#P OB98/GEN NMR

erre ene a

0 1
  C     -108.018    -633.686     -15.362
  O     -107.898    -633.747     -16.776
  P     -109.054    -634.517     -17.582
  C     -109.905    -636.966     -17.378
  O     -108.792    -636.076     -17.342
  C     -109.451    -638.402     -17.143
  O     -108.797    -638.508     -15.868
  C     -110.586    -639.412     -17.112
  O     -111.025    -639.703     -18.427
  C     -109.921    -640.584     -16.404
  O     -109.218    -641.427     -17.342
  C     -108.939    -639.887     -15.440
  N     -109.358    -639.977     -14.053
  C     -109.092    -641.194     -13.413
  O     -108.559    -642.113     -14.033
  N     -109.478    -641.347     -12.105
  C     -110.082    -640.371     -11.493
  N     -110.434    -640.578     -10.196
  C     -110.397    -639.082     -12.136
  C     -110.017    -638.953     -13.403
  O     -108.632    -634.298     -19.109
  O     -110.439    -634.040     -17.295
  H     -108.475    -640.882     -17.670
  H     -109.421    -634.339     -19.694
  H     -110.895    -638.303     -11.583
  H     -110.209    -638.042     -13.956
  H     -107.941    -640.331     -15.523
  H     -110.652    -641.224     -15.898
  H     -111.420    -639.034     -16.510
  H     -108.715    -638.661     -17.924
  H     -110.212    -641.477      -9.782
  H     -110.383    -636.903     -18.363
  H     -110.887    -639.877      -9.626
  H     -110.630    -636.655     -16.616
  P     -112.417    -640.470     -18.593
  C     -113.464    -642.443     -17.338
  O     -112.266    -641.801     -17.717
  O     -112.316    -641.034     -20.092
  O     -113.662    -639.672     -18.373
  H     -113.163    -641.446     -20.349
  H     -113.222    -643.412     -16.888
  H     -114.099    -642.615     -18.214
  H     -114.001    -641.835     -16.602
  H     -107.186    -633.149     -14.956
  H     -108.031    -634.678     -14.962
  H     -108.927    -633.185     -15.102

 3  4  5  6  7  8  9  10  11  12  13  21  23  27  28  29  30  32 0
 6-311+G(2d,p)
 ****
 34  35 0
 6-311+G(2d,p)
 ****
 1  2  14  15  16  17  18  19  20  22  24  25  26 0
 3-21G
 ****
 31  33  36  37  38  39  40  41  42  43  44  45  46 0
 3-21G
 ****


