%nproc=1
%NoSave
%Mem=1900MB
#P OB98/GEN NMR

erre ene a

0 1
  C      288.592    -571.670     -85.711
  O      288.823    -572.800     -84.870
  P      288.992    -572.531     -83.301
  C      287.976    -574.546     -81.961
  O      289.108    -573.951     -82.569
  C      287.172    -575.380     -82.982
  O      288.025    -576.455     -83.458
  C      285.929    -576.062     -82.429
  O      285.079    -576.428     -83.520
  C      286.513    -577.312     -81.805
  O      285.518    -578.309     -81.588
  C      287.629    -577.688     -82.808
  N      288.804    -578.325     -82.170
  C      288.993    -579.695     -82.340
  O      288.229    -580.416     -82.987
  N      290.074    -580.238     -81.702
  C      290.996    -579.561     -80.957
  O      291.894    -580.109     -80.343
  C      290.828    -578.100     -80.936
  C      289.761    -577.562     -81.519
  O      287.561    -571.976     -82.855
  O      290.091    -571.577     -82.972
  H      284.948    -577.979     -80.855
  H      287.601    -571.014     -82.708
  H      290.184    -581.242     -81.765
  H      291.579    -577.514     -80.411
  H      289.615    -576.480     -81.492
  H      287.260    -578.385     -83.565
  H      286.950    -577.074     -80.831
  H      285.371    -575.466     -81.699
  H      286.925    -574.750     -83.835
  H      287.342    -573.773     -81.525
  H      288.296    -575.192     -81.138
  P      283.852    -575.456     -83.877
  C      283.848    -575.168     -86.430
  O      283.342    -575.896     -85.326
  O      284.103    -573.995     -83.690
  O      282.689    -575.991     -82.915
  H      281.996    -575.305     -82.822
  H      283.875    -575.824     -87.303
  H      284.863    -574.798     -86.235
  H      283.193    -574.318     -86.634
  H      288.499    -571.994     -86.726
  H      289.413    -570.989     -85.628
  H      287.690    -571.179     -85.409

 3  4  5  6  7  8  9  10  11  12  13  23  28  29  30  31  32 0
 6-311+G(2d,p)
 ****
 33  34 0
 6-311+G(2d,p)
 ****
 1  2  14  15  16  17  18  19  20  21  22  24  25  26  27 0
 3-21G
 ****
 35  36  37  38  39  40  41  42  43  44  45 0
 3-21G
 ****


