%nproc=1
%NoSave
%Mem=1900MB
#P OB98/GEN NMR

erre ene a

0 1
  C       -6.294      55.233       4.245
  O       -6.991      54.574       5.289
  P       -6.889      55.088       6.806
  C       -8.839      53.458       7.192
  O       -7.594      53.942       7.679
  C       -9.539      52.634       8.269
  O       -9.614      53.430       9.475
  C      -10.981      52.228       7.967
  O      -11.111      51.052       7.182
  C      -11.497      51.953       9.373
  O      -11.046      50.659       9.813
  C      -10.819      53.056      10.189
  N      -15.071      54.863      12.383
  C      -14.471      53.653      12.434
  N      -13.350      53.244      11.805
  C      -12.814      54.249      11.095
  C      -13.306      55.535      10.951
  C      -14.494      55.834      11.639
  N      -15.090      57.076      11.604
  N      -12.488      56.281      10.124
  C      -11.516      55.460       9.789
  N      -11.663      54.224      10.356
  O       -7.391      56.473       7.024
  O       -5.343      54.922       7.176
  H      -11.353      50.011       9.151
  H       -5.134      55.447       7.972
  H      -14.961      52.911      13.059
  H      -10.692      55.713       9.138
  H      -10.514      52.716      11.185
  H      -12.589      51.946       9.432
  H      -11.547      53.060       7.532
  H       -8.923      51.753       8.484
  H       -8.643      52.820       6.322
  H      -15.864      57.235      12.229
  H      -14.577      57.839      11.186
  H       -9.460      54.297       6.870
  P      -12.279      51.035       6.076
  C      -10.850      49.327       4.703
  O      -12.095      49.657       5.276
  O      -12.353      52.260       5.234
  O      -13.594      50.780       6.953
  H      -13.648      49.906       7.373
  H      -10.889      48.292       4.351
  H      -10.046      49.413       5.437
  H      -10.643      49.979       3.850
  H       -6.492      54.739       3.317
  H       -5.243      55.207       4.446
  H       -6.620      56.250       4.185

 3  4  5  6  7  8  9  10  11  12  22  25  29  30  31  32 0
 6-311+G(2d,p)
 ****
 33  36  37 0
 6-311+G(2d,p)
 ****
 1  2  13  14  15  16  17  18  19  20  21  23  24  26 0
 3-21G
 ****
 27  28  34  35  38  39  40  41  42  43  44  45  46  47  48 0
 3-21G
 ****


