%nproc=1
%NoSave
%Mem=1900MB
#P OB98/GEN NMR

erre ene a

0 1
  C      314.279    -316.474    -246.867
  O      315.029    -317.550    -247.453
  P      314.202    -318.726    -248.167
  C      314.684    -318.170    -250.692
  O      314.953    -318.998    -249.560
  C      315.986    -317.601    -251.245
  O      316.573    -316.663    -250.303
  C      317.070    -318.646    -251.507
  O      316.788    -319.407    -252.670
  C      318.306    -317.759    -251.603
  O      318.400    -317.157    -252.899
  C      317.999    -316.675    -250.536
  N      318.744    -316.861    -249.296
  C      319.939    -316.150    -249.182
  O      320.366    -315.407    -250.079
  N      320.633    -316.316    -248.015
  C      320.282    -317.143    -246.991
  O      320.940    -317.250    -245.951
  C      319.035    -317.921    -247.176
  C      318.335    -317.746    -248.306
  O      312.858    -317.953    -248.585
  O      314.003    -319.921    -247.290
  H      313.023    -317.023    -248.838
  H      318.750    -317.850    -253.497
  H      321.490    -315.805    -247.908
  H      318.738    -318.597    -246.392
  H      317.423    -318.309    -248.474
  H      318.254    -315.678    -250.932
  H      319.238    -318.320    -251.424
  H      317.160    -319.318    -250.636
  H      315.760    -317.054    -252.174
  H      314.017    -317.349    -250.406
  H      314.164    -318.773    -251.443
  P      317.324    -320.919    -252.700
  C      315.154    -322.391    -252.648
  O      316.174    -321.789    -253.410
  O      317.217    -321.318    -251.153
  O      318.690    -321.062    -253.278
  H      316.371    -321.031    -250.749
  H      314.311    -322.629    -253.304
  H      314.802    -321.723    -251.856
  H      315.520    -323.319    -252.202
  H      314.952    -315.767    -246.430
  H      313.629    -316.863    -246.111
  H      313.697    -315.991    -247.624

 3  4  5  6  7  8  9  10  11  12  13  24  28  29  30  31  32 0
 6-311+G(2d,p)
 ****
 33  34 0
 6-311+G(2d,p)
 ****
 1  2  14  15  16  17  18  19  20  21  22  23  25  26  27 0
 3-21G
 ****
 35  36  37  38  39  40  41  42  43  44  45 0
 3-21G
 ****


