%nproc=1
%NoSave
%Mem=1900MB
#P OB98/GEN NMR

erre ene a

0 1
  C      153.019    -199.795    -235.123
  O      153.124    -198.879    -236.218
  P      151.811    -198.617    -237.101
  C      151.765    -196.072    -236.553
  O      151.795    -197.084    -237.557
  C      152.721    -194.938    -236.920
  O      154.088    -195.292    -236.634
  C      152.699    -194.591    -238.400
  O      151.560    -193.810    -238.710
  C      154.019    -193.850    -238.573
  O      153.869    -192.435    -238.353
  C      154.918    -194.485    -237.491
  N      156.011    -195.264    -238.048
  C      157.211    -194.571    -238.258
  O      157.287    -193.371    -237.994
  N      158.277    -195.257    -238.786
  C      158.150    -196.508    -239.103
  N      159.240    -197.127    -239.626
  C      156.892    -197.265    -238.925
  C      155.874    -196.588    -238.394
  O      150.628    -198.698    -236.022
  O      151.616    -199.612    -238.202
  H      153.696    -192.338    -237.391
  H      149.822    -199.063    -236.432
  H      156.832    -198.306    -239.208
  H      154.913    -197.061    -238.228
  H      155.356    -193.703    -236.849
  H      154.414    -193.970    -239.587
  H      152.704    -195.511    -239.000
  H      152.453    -194.049    -236.324
  H      160.082    -196.579    -239.740
  H      152.040    -196.495    -235.583
  H      159.250    -198.097    -239.913
  H      150.737    -195.705    -236.452
  P      151.084    -193.763    -240.239
  C      148.776    -194.725    -239.644
  O      149.483    -193.623    -240.171
  O      151.258    -195.295    -240.687
  O      151.797    -192.828    -241.153
  H      151.083    -195.383    -241.645
  H      147.742    -194.423    -239.460
  H      149.219    -195.050    -238.700
  H      148.782    -195.547    -240.364
  H      153.965    -199.870    -234.629
  H      152.731    -200.758    -235.490
  H      152.282    -199.442    -234.432

 3  4  5  6  7  8  9  10  11  12  13  21  23  27  28  29  30  32 0
 6-311+G(2d,p)
 ****
 34  35 0
 6-311+G(2d,p)
 ****
 1  2  14  15  16  17  18  19  20  22  24  25  26 0
 3-21G
 ****
 31  33  36  37  38  39  40  41  42  43  44  45  46 0
 3-21G
 ****


