%nproc=1
%NoSave
%Mem=1900MB
#P OB98/GEN NMR

erre ene a

0 1
  C     -824.703    -364.985    1619.846
  O     -823.400    -364.495    1619.544
  P     -822.863    -364.131    1618.090
  C     -820.582    -365.462    1618.294
  O     -821.269    -364.225    1618.112
  C     -819.118    -365.232    1618.696
  O     -818.379    -364.718    1617.553
  C     -818.963    -364.183    1619.825
  O     -818.011    -364.541    1620.810
  C     -818.709    -362.892    1619.058
  O     -818.117    -361.865    1619.829
  C     -817.904    -363.404    1617.857
  N     -816.665    -358.917    1615.726
  C     -816.486    -359.343    1617.037
  N     -815.924    -358.462    1617.892
  N     -816.847    -360.540    1617.472
  C     -817.487    -361.270    1616.530
  C     -817.727    -360.945    1615.219
  C     -817.273    -359.664    1614.742
  O     -817.392    -359.226    1613.591
  N     -818.399    -361.983    1614.566
  C     -818.539    -362.887    1615.481
  N     -817.996    -362.523    1616.691
  O     -823.460    -362.931    1617.447
  O     -823.267    -365.425    1617.190
  H     -817.910    -361.130    1619.228
  H     -823.442    -365.086    1616.296
  H     -816.358    -358.005    1615.453
  H     -819.016    -363.854    1615.325
  H     -816.837    -363.454    1618.079
  H     -819.704    -362.518    1618.712
  H     -815.735    -357.506    1617.671
  H     -819.892    -364.092    1620.397
  H     -815.999    -358.705    1618.893
  H     -818.681    -366.200    1618.996
  H     -820.636    -365.987    1617.344
  H     -821.122    -366.065    1619.045
  P     -818.244    -365.283    1622.216
  C     -818.509    -363.332    1623.844
  O     -817.650    -364.388    1623.382
  O     -817.229    -366.550    1622.192
  O     -819.659    -365.764    1622.442
  H     -817.744    -367.374    1622.237
  H     -817.899    -362.635    1624.453
  H     -819.279    -363.755    1624.505
  H     -818.944    -362.790    1623.015
  H     -824.789    -365.143    1620.901
  H     -824.864    -365.910    1619.332
  H     -825.435    -364.270    1619.532

 3  4  5  6  7  8  9  10  11  12  23  26  30  31 0
 6-311+G(2d,p)
 ****
 33  35  36  37  38 0
 6-311+G(2d,p)
 ****
 1  2  13  14  15  16  17  18  19  20  21  22  24  25 0
 3-21G
 ****
 27  28  29  32  34  39  40  41  42  43  44  45  46  47  48  49 0
 3-21G
 ****


