%nproc=1
%NoSave
%Mem=1900MB
#P OB98/GEN NMR

erre ene a

0 1
  C      165.412     584.609     258.844
  O      164.935     585.327     257.724
  H      164.559     584.221     259.403
  H      165.990     585.269     259.499
  H      166.038     583.765     258.527
  P      165.990     585.893     256.656
  C      165.658     587.932     255.115
  O      165.654     587.451     256.456
  C      164.839     589.224     255.025
  O      163.428     588.929     255.144
  C      165.147     590.233     256.137
  O      166.378     590.887     255.883
  C      163.911     591.113     256.056
  O      164.010     592.049     254.968
  C      162.803     590.072     255.780
  N      162.081     589.675     256.990
  C      161.174     590.615     257.496
  O      160.991     591.716     256.991
  N      160.534     590.242     258.652
  C      160.768     589.105     259.373
  O      160.333     588.921     260.507
  C      161.664     588.128     258.745
  C      162.274     588.449     257.602
  O      166.121     585.107     255.396
  O      167.367     585.931     257.474
  H      167.911     585.161     257.226
  H      164.870     592.502     255.071
  H      159.921     590.937     259.064
  H      161.822     587.180     259.250
  H      162.971     587.755     257.144
  H      162.072     590.471     255.058
  H      163.756     591.696     256.965
  H      165.166     589.723     257.107
  H      165.008     589.672     254.038
  H      165.216     587.179     254.465
  H      166.695     588.109     254.807
  P      167.510     590.966     257.014
  C      168.369     592.657     258.736
  O      167.361     592.362     257.793
  O      168.899     590.672     256.539
  O      167.047     589.884     258.114
  H      167.788     589.264     258.283
  H      168.167     593.605     259.189
  H      169.318     592.692     258.244
  H      168.386     591.898     259.490

 6  7  8  9  10  11  12  13  14  15  16  27  31  32  33  34  35 0
 6-311+G(2d,p)
 ****
 36  37 0
 6-311+G(2d,p)
 ****
 1  2  3  4  5  17  18  19  20  21  22  23  24  25 0
 3-21G
 ****
 26  28  29  30  38  39  40  41  42  43  44  45 0
 3-21G
 ****


