%nproc=1
%NoSave
%Mem=1900MB
#P OB98/GEN NMR

erre ene a

0 1
  C      185.011    -205.005     -29.739
  O      184.360    -205.563     -28.593
  P      183.467    -204.576     -27.699
  C      181.100    -205.485     -28.289
  O      182.033    -204.416     -28.394
  C      179.729    -204.948     -27.873
  O      179.185    -204.072     -28.878
  C      178.688    -206.040     -27.691
  O      178.869    -206.698     -26.453
  C      177.385    -205.256     -27.788
  O      176.955    -204.779     -26.502
  C      177.756    -204.075     -28.714
  N      177.076    -204.134     -29.997
  C      177.814    -203.694     -31.101
  O      178.961    -203.267     -30.951
  N      177.224    -203.726     -32.339
  C      175.998    -204.136     -32.459
  N      175.467    -204.141     -33.709
  C      175.178    -204.583     -31.315
  C      175.773    -204.555     -30.124
  O      184.152    -203.149     -27.931
  O      183.431    -204.940     -26.250
  H      177.005    -205.554     -25.905
  H      184.076    -202.603     -27.129
  H      174.159    -204.908     -31.463
  H      175.246    -204.864     -29.227
  H      177.495    -203.121     -28.238
  H      176.574    -205.876     -28.181
  H      178.750    -206.758     -28.518
  H      179.846    -204.383     -26.938
  H      176.057    -203.826     -34.470
  H      181.448    -206.219     -27.561
  H      174.522    -204.432     -33.916
  H      181.044    -206.000     -29.254
  P      179.304    -208.238     -26.482
  C      181.846    -207.904     -26.576
  O      180.685    -208.265     -27.297
  O      178.280    -208.854     -27.552
  O      179.277    -208.983     -25.191
  H      178.380    -209.822     -27.593
  H      182.725    -208.163     -27.172
  H      181.896    -208.444     -25.627
  H      181.851    -206.825     -26.394
  H      185.568    -205.769     -30.240
  H      185.674    -204.225     -29.428
  H      184.277    -204.604     -30.406

 3  4  5  6  7  8  9  10  11  12  13  21  23  27  28  29  30  32 0
 6-311+G(2d,p)
 ****
 34  35 0
 6-311+G(2d,p)
 ****
 1  2  14  15  16  17  18  19  20  22  24  25  26 0
 3-21G
 ****
 31  33  36  37  38  39  40  41  42  43  44  45  46 0
 3-21G
 ****


