%nproc=1
%NoSave
%Mem=1900MB
#P OB98/GEN NMR

erre ene a

0 1
  C     -437.085     247.803     -65.655
  O     -437.788     246.669     -66.161
  P     -438.085     246.656     -67.735
  C     -436.594     244.574     -68.171
  O     -436.837     245.946     -68.463
  C     -435.161     244.185     -68.587
  O     -434.194     245.182     -68.228
  C     -434.687     242.892     -67.940
  O     -435.231     241.768     -68.631
  C     -433.171     243.010     -68.096
  O     -432.746     242.563     -69.393
  C     -432.929     244.531     -67.949
  N     -428.840     245.504     -65.107
  C     -428.934     244.951     -66.377
  N     -427.761     244.645     -66.984
  N     -430.066     244.732     -66.982
  C     -431.151     245.090     -66.267
  C     -431.185     245.668     -65.015
  C     -429.918     245.907     -64.343
  O     -429.786     246.404     -63.232
  N     -432.476     245.946     -64.620
  C     -433.213     245.418     -65.583
  N     -432.464     244.951     -66.630
  O     -437.944     248.201     -68.155
  O     -439.426     246.106     -68.084
  H     -432.994     243.237     -70.058
  H     -438.819     248.558     -68.378
  H     -427.954     245.640     -64.687
  H     -434.294     245.385     -65.580
  H     -432.202     244.902     -68.660
  H     -432.641     242.398     -67.368
  H     -426.861     244.791     -66.572
  H     -434.951     242.868     -66.884
  H     -427.818     244.245     -67.921
  H     -435.160     244.071     -69.685
  H     -437.306     243.937     -68.699
  H     -436.732     244.405     -67.102
  P     -436.588     241.137     -68.069
  C     -438.154     241.982     -69.955
  O     -437.789     242.045     -68.584
  O     -436.507     241.446     -66.493
  O     -436.746     239.668     -68.317
  H     -436.785     240.650     -65.994
  H     -439.235     242.214     -70.034
  H     -437.964     241.000     -70.379
  H     -437.591     242.741     -70.509
  H     -436.948     247.696     -64.599
  H     -437.649     248.690     -65.853
  H     -436.130     247.873     -66.133

 3  4  5  6  7  8  9  10  11  12  23  26  30  31 0
 6-311+G(2d,p)
 ****
 33  35  36  37  38 0
 6-311+G(2d,p)
 ****
 1  2  13  14  15  16  17  18  19  20  21  22  24  25 0
 3-21G
 ****
 27  28  29  32  34  39  40  41  42  43  44  45  46  47  48  49 0
 3-21G
 ****


