%nproc=1
%NoSave
%Mem=1900MB
#P OB98/GEN NMR

erre ene a

0 1
  C     -214.958    1559.083     -71.772
  O     -216.087    1558.287     -71.438
  H     -214.202    1558.952     -70.995
  H     -215.240    1560.133     -71.823
  H     -214.547    1558.759     -72.727
  P     -217.366    1558.429     -72.403
  C     -216.882    1556.214     -73.706
  O     -217.713    1556.904     -72.780
  C     -216.676    1554.774     -73.248
  O     -215.932    1554.729     -72.009
  C     -217.969    1554.010     -72.969
  O     -218.627    1553.555     -74.142
  C     -217.412    1552.849     -72.150
  O     -216.746    1551.919     -73.036
  C     -216.402    1553.581     -71.245
  N     -217.006    1554.021     -69.963
  C     -217.433    1553.006     -69.100
  O     -217.312    1551.822     -69.407
  N     -218.023    1553.368     -67.917
  C     -218.158    1554.617     -67.605
  N     -218.753    1554.914     -66.420
  C     -217.709    1555.720     -68.488
  C     -217.139    1555.347     -69.632
  O     -216.745    1558.993     -73.772
  O     -218.510    1559.226     -71.872
  H     -217.454    1551.446     -73.528
  H     -217.427    1558.973     -74.478
  H     -217.844    1556.746     -68.199
  H     -216.778    1556.102     -70.332
  H     -215.534    1552.951     -71.027
  H     -218.180    1552.281     -71.623
  H     -218.652    1554.586     -72.329
  H     -216.069    1554.263     -74.003
  H     -219.111    1554.141     -65.876
  H     -215.917    1556.741     -73.747
  H     -219.033    1555.854     -66.159
  H     -217.335    1556.220     -74.695
  P     -220.227    1553.635     -74.169
  C     -220.352    1555.977     -75.338
  O     -220.630    1554.564     -75.413
  O     -220.568    1554.550     -72.894
  O     -220.924    1552.310     -74.120
  H     -221.408    1554.256     -72.484
  H     -220.678    1556.453     -76.239
  H     -219.300    1556.127     -75.216
  H     -220.872    1556.399     -74.504

 6  7  8  9  10  11  12  13  14  15  16  26  30  31  32  33  35 0
 6-311+G(2d,p)
 ****
 37  38 0
 6-311+G(2d,p)
 ****
 1  2  3  4  5  17  18  19  20  21  22  23  24  25 0
 3-21G
 ****
 27  28  29  34  36  39  40  41  42  43  44  45  46 0
 3-21G
 ****


