%nproc=1
%NoSave
%Mem=1900MB
#P OB98/GEN NMR

erre ene a

0 1
  C       62.237      41.180      19.768
  O       62.931      40.926      18.558
  P       64.508      41.164      18.450
  C       66.040      43.284      18.678
  O       64.777      42.735      18.373
  C       66.034      44.776      18.312
  O       66.000      44.936      16.879
  C       64.819      45.492      18.896
  O       65.143      46.093      20.140
  C       64.472      46.493      17.811
  O       65.314      47.657      17.912
  C       64.811      45.696      16.529
  N       63.802      44.752      16.010
  C       62.741      45.231      15.247
  O       62.596      46.410      14.943
  N       61.817      44.291      14.859
  C       61.884      42.953      15.117
  O       60.948      42.173      14.978
  C       63.152      42.481      15.680
  C       64.028      43.386      16.115
  O       64.848      40.658      16.971
  O       65.334      40.472      19.484
  H       66.233      47.358      17.794
  H       65.207      39.750      16.992
  H       60.973      44.652      14.426
  H       63.307      41.414      15.773
  H       64.958      43.060      16.572
  H       65.077      46.369      15.707
  H       63.449      46.850      17.916
  H       63.981      44.790      19.005
  H       66.960      45.234      18.680
  H       66.823      42.758      18.121
  H       66.259      43.157      19.743
  P       64.058      46.109      21.316
  C       61.846      47.372      21.607
  O       63.132      47.385      21.018
  O       64.608      46.025      22.702
  O       63.122      44.854      20.970
  H       63.395      44.080      21.506
  H       61.393      48.358      21.481
  H       61.915      47.145      22.675
  H       61.219      46.628      21.108
  H       61.198      40.961      19.636
  H       62.353      42.209      20.036
  H       62.636      40.562      20.545

 3  4  5  6  7  8  9  10  11  12  13  23  28  29  30  31  32 0
 6-311+G(2d,p)
 ****
 33  34 0
 6-311+G(2d,p)
 ****
 1  2  14  15  16  17  18  19  20  21  22  24  25  26  27 0
 3-21G
 ****
 35  36  37  38  39  40  41  42  43  44  45 0
 3-21G
 ****


