%nproc=1
%NoSave
%Mem=1900MB
#P OB98/GEN NMR

erre ene a

0 1
  C      138.400    -221.234      90.909
  O      138.674    -222.600      91.132
  H      139.076    -220.862      90.133
  H      138.580    -220.665      91.824
  H      137.371    -221.085      90.575
  P      137.651    -223.464      92.012
  C      137.530    -225.696      90.721
  O      138.090    -224.996      91.824
  C      138.343    -225.421      89.455
  O      139.699    -225.923      89.666
  C      137.778    -226.115      88.200
  O      138.024    -225.276      87.066
  C      138.643    -227.357      88.127
  O      138.635    -227.930      86.843
  C      139.995    -226.800      88.566
  N      140.920    -227.867      88.934
  C      141.480    -228.601      87.894
  O      141.229    -228.401      86.707
  N      142.295    -229.635      88.262
  C      142.510    -230.067      89.537
  O      143.186    -231.050      89.805
  C      141.848    -229.286      90.595
  C      141.101    -228.235      90.252
  O      136.201    -223.198      91.779
  O      138.089    -223.174      93.525
  H      139.079    -227.336      86.210
  H      137.353    -223.373      94.135
  H      142.717    -230.170      87.518
  H      141.984    -229.613      91.617
  H      140.583    -227.649      91.002
  H      140.445    -226.193      87.770
  H      138.281    -228.111      88.833
  H      136.711    -226.339      88.275
  H      138.423    -224.339      89.307
  H      136.498    -225.350      90.585
  H      137.520    -226.769      90.938
  P      137.082    -224.025      86.719
  C      138.648    -222.272      85.684
  O      137.637    -223.242      85.427
  O      136.789    -223.137      87.885
  O      135.724    -224.690      86.189
  H      134.964    -224.243      86.608
  H      138.945    -221.813      84.764
  H      139.494    -222.749      86.134
  H      138.265    -221.525      86.348

 6  7  8  9  10  11  12  13  14  15  16  26  31  32  33  34  35 0
 6-311+G(2d,p)
 ****
 36  37 0
 6-311+G(2d,p)
 ****
 1  2  3  4  5  17  18  19  20  21  22  23  24  25 0
 3-21G
 ****
 27  28  29  30  38  39  40  41  42  43  44  45 0
 3-21G
 ****


