%nproc=1
%NoSave
%Mem=1900MB
#P OB98/GEN NMR

erre ene a

0 1
  C      269.516    -383.996    -206.381
  O      270.408    -382.885    -206.561
  P      270.346    -381.702    -205.478
  C      272.450    -382.434    -204.082
  O      271.858    -381.494    -204.978
  C      273.969    -382.303    -204.117
  O      274.487    -382.732    -205.405
  C      274.484    -380.878    -203.925
  O      274.377    -380.464    -202.573
  C      275.911    -381.016    -204.444
  O      276.761    -381.589    -203.445
  C      275.724    -382.015    -205.617
  N      275.756    -381.375    -206.927
  C      276.939    -380.715    -207.263
  O      277.913    -380.656    -206.497
  N      276.974    -380.125    -208.496
  C      275.947    -380.088    -209.389
  O      276.032    -379.546    -210.496
  C      274.690    -380.752    -208.971
  C      274.655    -381.356    -207.775
  O      269.619    -382.441    -204.251
  O      269.653    -380.478    -205.984
  H      269.873    -383.383    -204.177
  H      277.637    -381.709    -203.868
  H      277.820    -379.654    -208.761
  H      273.853    -380.726    -209.648
  H      273.746    -381.843    -207.437
  H      276.525    -382.771    -205.596
  H      276.344    -380.047    -204.739
  H      273.918    -380.186    -204.572
  H      274.393    -382.962    -203.344
  H      272.163    -383.453    -204.363
  H      272.059    -382.245    -203.077
  P      274.002    -378.926    -202.309
  C      271.586    -379.396    -201.403
  O      272.890    -378.928    -201.148
  O      273.181    -378.573    -203.637
  O      275.184    -378.051    -202.066
  H      272.539    -379.272    -203.879
  H      271.102    -379.640    -200.453
  H      271.601    -380.294    -202.028
  H      271.002    -378.618    -201.902
  H      269.664    -384.704    -207.169
  H      268.504    -383.648    -206.400
  H      269.715    -384.464    -205.439

 3  4  5  6  7  8  9  10  11  12  13  24  28  29  30  31  32 0
 6-311+G(2d,p)
 ****
 33  34 0
 6-311+G(2d,p)
 ****
 1  2  14  15  16  17  18  19  20  21  22  23  25  26  27 0
 3-21G
 ****
 35  36  37  38  39  40  41  42  43  44  45 0
 3-21G
 ****


