%nproc=1
%NoSave
%Mem=1900MB
#P OB98/GEN NMR

erre ene a

0 1
  C     -336.944    -898.860    -296.535
  O     -336.924    -898.210    -295.276
  P     -335.502    -898.050    -294.552
  C     -335.501    -895.460    -294.952
  O     -334.846    -896.710    -295.146
  C     -334.602    -894.530    -294.139
  O     -333.476    -894.100    -294.935
  C     -335.293    -893.250    -293.671
  O     -336.059    -893.490    -292.503
  C     -334.104    -892.330    -293.451
  O     -333.482    -892.580    -292.175
  C     -333.175    -892.720    -294.610
  N     -331.213    -888.846    -297.195
  C     -330.907    -889.322    -295.931
  N     -329.910    -888.692    -295.284
  N     -331.533    -890.323    -295.360
  C     -332.522    -890.830    -296.117
  C     -332.932    -890.450    -297.378
  C     -332.203    -889.385    -298.020
  O     -332.367    -888.996    -299.173
  N     -333.980    -891.210    -297.819
  C     -334.193    -892.070    -296.845
  N     -333.319    -891.890    -295.793
  O     -334.635    -899.220    -295.209
  O     -335.532    -898.120    -293.064
  H     -333.019    -893.440    -292.214
  H     -334.605    -900.000    -294.615
  H     -330.696    -888.092    -297.595
  H     -334.947    -892.840    -296.847
  H     -332.117    -892.680    -294.315
  H     -334.396    -891.270    -293.448
  H     -329.404    -887.901    -295.653
  H     -335.932    -892.850    -294.466
  H     -329.675    -889.013    -294.356
  H     -334.217    -895.090    -293.280
  H     -336.437    -895.640    -294.403
  H     -335.738    -895.030    -295.925
  P     -337.521    -892.860    -292.417
  C     -338.876    -895.040    -292.841
  O     -338.491    -893.760    -293.321
  O     -337.378    -891.500    -293.254
  O     -338.003    -892.600    -291.022
  H     -337.933    -890.800    -292.840
  H     -339.859    -895.280    -293.248
  H     -338.912    -895.060    -291.746
  H     -338.157    -895.780    -293.190
  H     -337.949    -898.898    -296.901
  H     -336.566    -899.855    -296.429
  H     -336.333    -898.318    -297.226

 3  4  5  6  7  8  9  10  11  12  23  26  30  31 0
 6-311+G(2d,p)
 ****
 33  35  36  37  38 0
 6-311+G(2d,p)
 ****
 1  2  13  14  15  16  17  18  19  20  21  22  24  25 0
 3-21G
 ****
 27  28  29  32  34  39  40  41  42  43  44  45  46  47  48  49 0
 3-21G
 ****


