%nproc=1
%NoSave
%Mem=1900MB
#P OB98/GEN NMR

erre ene a

0 1
  C     -150.116    -615.220     568.755
  O     -150.784    -615.394     567.498
  P     -152.287    -614.840     567.404
  C     -151.663    -613.188     565.476
  O     -152.221    -613.366     566.785
  C     -151.322    -611.716     565.228
  O     -150.311    -611.253     566.139
  C     -150.758    -611.436     563.845
  O     -151.792    -611.346     562.858
  C     -150.115    -610.076     564.047
  O     -151.115    -609.049     563.952
  C     -149.590    -610.174     565.490
  N     -144.965    -608.135     565.945
  C     -146.203    -607.528     565.918
  N     -146.211    -606.171     566.038
  N     -147.326    -608.160     565.768
  C     -147.171    -609.520     565.675
  C     -145.988    -610.241     565.677
  C     -144.757    -609.515     565.823
  O     -143.615    -610.004     565.826
  N     -146.238    -611.604     565.586
  C     -147.539    -611.687     565.527
  N     -148.153    -610.450     565.560
  O     -152.690    -614.584     568.935
  O     -153.235    -615.787     566.737
  H     -150.665    -608.193     564.082
  H     -153.655    -614.654     569.062
  H     -144.116    -607.578     566.054
  H     -148.094    -612.609     565.461
  H     -149.789    -609.252     566.068
  H     -149.353    -609.847     563.299
  H     -145.402    -605.617     566.227
  H     -149.998    -612.184     563.554
  H     -147.123    -605.712     566.047
  H     -152.225    -611.120     565.388
  H     -152.382    -613.529     564.720
  H     -150.771    -613.823     565.377
  P     -152.338    -612.742     562.231
  C     -154.721    -612.396     563.222
  O     -153.559    -613.196     563.175
  O     -151.150    -613.774     562.578
  O     -152.629    -612.694     560.765
  H     -151.107    -614.477     561.920
  H     -155.011    -612.038     562.233
  H     -154.533    -611.519     563.885
  H     -155.532    -612.969     563.650
  H     -149.128    -615.627     568.693
  H     -150.663    -615.726     569.523
  H     -150.058    -614.177     568.987

 3  4  5  6  7  8  9  10  11  12  23  26  30  31  33  0
 6-311+G(2d,p)
 ****
 35  36  37  38 0
 6-311+G(2d,p)
 ****
 1  2  13  14  15  16  17  18  19  20  21  22  24  25  27  28  29 0
 3-21G
 ****
 32  34  39  40  41  42  43  44  45  46  47  48  49 0
 3-21G
 ****


