%nproc=1
%NoSave
%Mem=1900MB
#P OB98/GEN NMR

erre ene a

0 1
  C      551.970    -657.869     -86.621
  O      553.390    -657.852     -86.785
  P      554.039    -656.770     -87.778
  C      556.363    -656.220     -88.742
  O      555.586    -657.143     -87.987
  C      557.851    -656.571     -88.662
  O      558.281    -656.781     -87.307
  C      558.204    -657.854     -89.407
  O      558.192    -657.652     -90.809
  C      559.558    -658.183     -88.799
  O      560.603    -657.431     -89.444
  C      559.393    -657.701     -87.341
  N      559.199    -658.799     -86.396
  C      560.129    -658.875     -85.346
  O      561.054    -658.072     -85.281
  N      559.969    -659.860     -84.404
  C      558.996    -660.703     -84.510
  N      558.894    -661.666     -83.550
  C      557.997    -660.677     -85.606
  C      558.170    -659.707     -86.507
  O      553.767    -655.342     -87.437
  O      553.397    -657.160     -89.193
  H      560.698    -657.815     -90.341
  H      553.321    -656.343     -89.741
  H      557.195    -661.392     -85.649
  H      557.493    -659.605     -87.356
  H      560.273    -657.138     -87.024
  H      559.811    -659.245     -88.906
  H      557.479    -658.639     -89.139
  H      558.417    -655.726     -89.096
  H      559.589    -661.677     -82.817
  H      556.201    -655.207     -88.361
  H      558.138    -662.334     -83.514
  H      556.007    -656.225     -89.780
  P      556.965    -658.256     -91.639
  C      555.608    -657.103     -93.531
  O      556.884    -657.460     -93.029
  O      555.691    -657.716     -90.830
  O      556.945    -659.751     -91.746
  H      554.968    -658.377     -90.871
  H      555.737    -656.325     -94.278
  H      554.962    -656.718     -92.728
  H      555.133    -657.965     -93.989
  H      551.700    -658.642     -85.932
  H      551.504    -658.055     -87.566
  H      551.643    -656.923     -86.242

 3  4  5  6  7  8  9  10  11  12  13  23  27  28  29  30  32 0
 6-311+G(2d,p)
 ****
 34  35 0
 6-311+G(2d,p)
 ****
 1  2  14  15  16  17  18  19  20  21  22  24  25  26 0
 3-21G
 ****
 31  33  36  37  38  39  40  41  42  43  44  45  46 0
 3-21G
 ****


