%nproc=1
%NoSave
%Mem=1900MB
#P OB98/GEN NMR

erre ene a

0 1
  C     -790.252     552.326    -229.524
  O     -791.303     551.642    -228.821
  P     -790.921     550.734    -227.557
  C     -790.576     548.756    -229.173
  O     -791.161     549.195    -227.953
  C     -790.266     547.260    -229.117
  O     -789.304     546.952    -228.076
  C     -791.483     546.409    -228.803
  O     -792.330     546.307    -229.929
  C     -790.814     545.094    -228.371
  O     -790.454     544.295    -229.503
  C     -789.558     545.608    -227.638
  N     -789.659     545.524    -226.185
  C     -789.329     544.295    -225.618
  O     -789.010     543.332    -226.333
  N     -789.372     544.170    -224.253
  C     -789.727     545.187    -223.516
  N     -789.762     544.991    -222.167
  C     -790.101     546.502    -224.081
  C     -790.057     546.584    -225.405
  O     -791.525     551.162    -226.254
  O     -789.323     550.838    -227.504
  H     -789.924     543.553    -229.147
  H     -789.032     550.752    -226.579
  H     -790.383     547.316    -223.424
  H     -790.305     547.523    -225.907
  H     -788.681     545.015    -227.945
  H     -791.496     544.488    -227.746
  H     -792.025     546.842    -227.963
  H     -789.829     546.956    -230.082
  H     -789.512     544.081    -221.809
  H     -789.658     549.331    -229.364
  H     -789.975     545.732    -221.514
  H     -791.258     548.985    -229.990
  P     -793.644     547.222    -229.950
  C     -794.806     546.050    -227.939
  O     -794.847     546.371    -229.318
  O     -794.029     547.284    -231.507
  O     -793.465     548.596    -229.387
  H     -794.416     548.149    -231.710
  H     -795.802     545.769    -227.605
  H     -794.478     546.919    -227.345
  H     -794.117     545.214    -227.774
  H     -790.670     552.884    -230.335
  H     -789.554     551.611    -229.906
  H     -789.750     552.992    -228.854

 3  4  5  6  7  8  9  10  11  12  13  23  27  28  29  30  32 0
 6-311+G(2d,p)
 ****
 34  35 0
 6-311+G(2d,p)
 ****
 1  2  14  15  16  17  18  19  20  21  22  24  25  26 0
 3-21G
 ****
 31  33  36  37  38  39  40  41  42  43  44  45  46 0
 3-21G
 ****


