%nproc=1
%NoSave
%Mem=1900MB
#P OB98/GEN NMR

erre ene a

0 1
  C     -121.413      89.021     684.340
  O     -121.258      87.633     684.177
  H     -120.563      89.411     684.908
  H     -122.328      89.231     684.906
  H     -121.449      89.530     683.372
  P     -122.210      86.851     683.150
  C     -124.034      85.035     683.383
  O     -123.228      86.001     684.053
  C     -123.570      83.623     683.743
  O     -122.207      83.449     683.252
  C     -123.558      83.352     685.263
  O     -123.895      81.974     685.485
  C     -122.098      83.588     685.602
  O     -121.732      82.986     686.817
  C     -121.414      83.006     684.369
  N     -120.022      83.439     684.279
  C     -119.125      82.888     685.192
  O     -119.454      82.083     686.063
  N     -117.838      83.354     685.129
  C     -117.398      84.368     684.331
  O     -116.253      84.799     684.365
  C     -118.400      84.947     683.417
  C     -119.645      84.461     683.425
  O     -121.520      86.066     682.080
  O     -123.162      87.992     682.554
  H     -120.798      83.182     687.023
  H     -123.545      87.705     681.703
  H     -117.177      82.959     685.777
  H     -118.091      85.767     682.778
  H     -120.412      84.872     682.784
  H     -121.448      81.906     684.381
  H     -121.905      84.662     685.688
  H     -124.238      83.996     685.823
  H     -124.197      82.893     683.223
  H     -123.935      85.197     682.301
  H     -125.084      85.175     683.671
  P     -124.525      81.472     686.872
  C     -123.711      80.588     689.145
  O     -123.410      80.711     687.762
  O     -125.800      80.697     686.722
  O     -124.799      82.818     687.691
  H     -125.695      82.777     688.090
  H     -122.914      80.073     689.639
  H     -124.620      80.037     689.264
  H     -123.826      81.562     689.573

 6  7  8  9  10  11  12  13  14  15  16  26  31  32  33  34  35 0
 6-311+G(2d,p)
 ****
 36  37 0
 6-311+G(2d,p)
 ****
 1  2  3  4  5  17  18  19  20  21  22  23  24  25 0
 3-21G
 ****
 27  28  29  30  38  39  40  41  42  43  44  45 0
 3-21G
 ****


