%nproc=1
%NoSave
%Mem=1900MB
#P OB98/GEN NMR

erre ene a

0 1
  C      -41.186      21.380     -27.091
  O      -42.014      20.267     -26.818
  H      -40.328      21.353     -26.416
  H      -41.741      22.307     -26.919
  H      -40.827      21.345     -28.124
  P      -43.243      20.018     -27.821
  C      -44.744      19.475     -25.737
  O      -44.277      19.092     -27.017
  C      -44.964      18.245     -24.854
  O      -43.671      17.692     -24.498
  C      -45.716      18.546     -23.556
  O      -46.549      17.427     -23.246
  C      -44.606      18.646     -22.524
  O      -45.078      18.403     -21.202
  C      -43.604      17.611     -23.060
  N      -42.247      17.843     -22.570
  C      -42.003      17.537     -21.228
  O      -42.910      17.107     -20.515
  N      -40.752      17.762     -20.713
  C      -39.840      18.309     -21.454
  N      -38.629      18.530     -20.877
  C      -40.066      18.690     -22.861
  C      -41.275      18.423     -23.352
  O      -42.594      19.021     -28.892
  O      -43.822      21.261     -28.407
  H      -45.820      19.021     -21.017
  H      -42.066      18.312     -28.490
  H      -39.278      19.153     -23.436
  H      -41.526      18.661     -24.379
  H      -43.906      16.597     -22.769
  H      -44.163      19.648     -22.543
  H      -46.321      19.453     -23.618
  H      -45.484      17.482     -25.443
  H      -38.524      18.275     -19.903
  H      -45.683      20.030     -25.824
  H      -37.865      18.999     -21.340
  H      -43.998      20.137     -25.287
  P      -47.947      17.666     -22.505
  C      -47.722      16.482     -20.217
  O      -48.253      16.427     -21.537
  O      -49.080      18.086     -23.379
  O      -47.593      18.836     -21.459
  H      -48.344      19.461     -21.446
  H      -48.000      15.597     -19.683
  H      -48.111      17.341     -19.711
  H      -46.655      16.549     -20.264

 6  7  8  9  10  11  12  13  14  15  16  26  30  31  32  33  35 0
 6-311+G(2d,p)
 ****
 37  38 0
 6-311+G(2d,p)
 ****
 1  2  3  4  5  17  18  19  20  21  22  23  24  25 0
 3-21G
 ****
 27  28  29  34  36  39  40  41  42  43  44  45  46 0
 3-21G
 ****


