%nproc=1
%NoSave
%Mem=1900MB
#P OB98/GEN NMR

erre ene a

0 1
  C      -79.518     197.944    -274.025
  O      -78.559     197.745    -273.000
  P      -78.868     196.786    -271.752
  C      -77.576     194.875    -272.887
  O      -78.822     195.299    -272.352
  C      -77.087     193.628    -272.153
  O      -78.142     192.638    -272.183
  C      -75.868     192.932    -272.761
  O      -74.619     193.480    -272.367
  C      -76.015     191.539    -272.163
  O      -75.549     191.539    -270.802
  C      -77.531     191.325    -272.205
  N      -80.026     187.208    -273.938
  C      -79.790     187.664    -272.687
  N      -79.101     188.761    -272.308
  C      -78.663     189.437    -273.379
  C      -78.826     189.102    -274.714
  C      -79.545     187.925    -274.981
  N      -79.800     187.473    -276.259
  N      -78.218     190.035    -275.530
  C      -77.709     190.923    -274.701
  N      -77.961     190.611    -273.394
  O      -80.095     197.140    -270.989
  O      -77.541     196.854    -270.863
  H      -74.672     191.964    -270.802
  H      -77.725     196.522    -269.964
  H      -80.211     187.068    -271.882
  H      -77.153     191.799    -275.000
  H      -77.901     190.778    -271.330
  H      -75.433     190.782    -272.699
  H      -75.948     192.867    -273.852
  H      -76.903     193.893    -271.106
  H      -76.848     195.682    -272.745
  H      -80.432     186.697    -276.357
  H      -79.588     188.091    -277.031
  H      -77.678     194.688    -273.959
  P      -73.720     194.154    -273.519
  C      -73.616     196.519    -272.407
  O      -74.066     195.718    -273.476
  O      -73.839     193.507    -274.854
  O      -72.243     194.086    -272.900
  H      -72.095     194.645    -272.122
  H      -73.814     197.568    -272.644
  H      -72.542     196.396    -272.251
  H      -74.154     196.261    -271.491
  H      -79.121     198.613    -274.760
  H      -80.408     198.364    -273.604
  H      -79.749     197.006    -274.485

 3  4  5  6  7  8  9  10  11  12  22  25  29  30  31  32 0
 6-311+G(2d,p)
 ****
 33  36  37 0
 6-311+G(2d,p)
 ****
 1  2  13  14  15  16  17  18  19  20  21  23  24  26 0
 3-21G
 ****
 27  28  34  35  38  39  40  41  42  43  44  45  46  47  48 0
 3-21G
 ****


