%nproc=1
%NoSave
%Mem=1900MB
#P OB98/GEN NMR

erre ene a

0 1
  C      -22.927    -791.263     530.165
  O      -21.687    -791.938     530.217
  H      -23.206    -791.123     529.120
  H      -22.838    -790.281     530.641
  H      -23.700    -791.849     530.666
  P      -21.092    -792.272     531.675
  C      -18.545    -791.810     531.376
  O      -19.588    -792.777     531.398
  C      -17.306    -792.380     530.683
  O      -16.722    -793.408     531.524
  C      -17.601    -793.005     529.318
  O      -16.585    -792.622     528.389
  C      -17.554    -794.501     529.577
  O      -17.219    -795.244     528.403
  C      -16.545    -794.597     530.728
  N      -16.744    -795.802     531.527
  C      -15.642    -796.657     531.663
  O      -14.572    -796.379     531.117
  N      -15.787    -797.823     532.374
  C      -16.952    -798.143     532.851
  N      -17.040    -799.324     533.523
  C      -18.153    -797.297     532.688
  C      -17.976    -796.157     532.027
  O      -21.869    -793.605     532.079
  O      -21.208    -791.172     532.674
  H      -17.491    -796.174     528.548
  H      -21.761    -793.812     533.040
  H      -19.107    -797.618     533.088
  H      -18.806    -795.475     531.859
  H      -15.517    -794.597     530.342
  H      -18.543    -794.841     529.917
  H      -18.570    -792.708     528.919
  H      -16.552    -791.583     530.604
  H      -16.192    -799.880     533.606
  H      -18.298    -791.531     532.407
  H      -17.897    -799.685     533.910
  H      -18.894    -790.923     530.833
  P      -17.008    -791.511     527.302
  C      -17.580    -793.127     525.362
  O      -16.713    -792.120     525.849
  O      -15.898    -790.370     527.483
  O      -18.395    -790.992     527.498
  H      -16.248    -789.639     528.025
  H      -17.260    -793.433     524.388
  H      -18.577    -792.742     525.305
  H      -17.559    -793.967     526.025

 6  7  8  9  10  11  12  13  14  15  16  26  30  31  32  33  35 0
 6-311+G(2d,p)
 ****
 37  38 0
 6-311+G(2d,p)
 ****
 1  2  3  4  5  17  18  19  20  21  22  23  24  25 0
 3-21G
 ****
 27  28  29  34  36  39  40  41  42  43  44  45  46 0
 3-21G
 ****


