%nproc=1
%NoSave
%Mem=1900MB
#P OB98/GEN NMR

erre ene a

0 1
  C      -26.303       7.022      -7.275
  O      -25.781       8.164      -6.629
  H      -26.141       7.123      -8.350
  H      -27.377       6.950      -7.089
  H      -25.805       6.111      -6.932
  P      -25.623       8.149      -5.035
  C      -27.160       7.609      -3.038
  O      -27.079       7.836      -4.437
  C      -28.602       7.765      -2.544
  O      -28.945       9.180      -2.536
  C      -29.641       7.046      -3.417
  O      -30.717       6.645      -2.558
  C      -30.091       8.160      -4.340
  O      -31.317       7.851      -4.965
  C      -30.106       9.345      -3.372
  N      -30.107      10.632      -4.065
  C      -31.292      11.001      -4.687
  O      -32.297      10.289      -4.702
  N      -31.282      12.203      -5.339
  C      -30.202      13.024      -5.477
  O      -30.239      14.076      -6.101
  C      -28.961      12.562      -4.835
  C      -28.970      11.407      -4.165
  O      -24.947       9.338      -4.441
  O      -24.824       6.795      -4.731
  H      -31.945       7.473      -4.313
  H      -24.278       6.901      -3.929
  H      -32.137      12.490      -5.787
  H      -28.083      13.186      -4.934
  H      -28.072      11.040      -3.681
  H      -30.994       9.308      -2.727
  H      -29.354       8.324      -5.133
  H      -29.234       6.184      -3.949
  H      -28.654       7.421      -1.504
  H      -26.516       8.340      -2.539
  H      -26.797       6.602      -2.809
  P      -30.976       5.108      -2.177
  C      -31.948       2.995      -3.282
  O      -31.775       4.406      -3.378
  O      -31.594       4.906      -0.832
  O      -29.530       4.423      -2.243
  H      -29.498       3.663      -1.633
  H      -32.491       2.643      -4.134
  H      -32.493       2.762      -2.391
  H      -30.990       2.520      -3.249

 6  7  8  9  10  11  12  13  14  15  16  26  31  32  33  34  35 0
 6-311+G(2d,p)
 ****
 36  37 0
 6-311+G(2d,p)
 ****
 1  2  3  4  5  17  18  19  20  21  22  23  24  25 0
 3-21G
 ****
 27  28  29  30  38  39  40  41  42  43  44  45 0
 3-21G
 ****


