%nproc=1
%NoSave
%Mem=1900MB
#P OB98/GEN NMR

erre ene a

0 1
  C       66.078    -708.768    -719.741
  O       67.318    -709.443    -719.860
  H       66.267    -707.694    -719.648
  H       65.542    -709.098    -718.843
  H       65.466    -708.942    -720.626
  P       67.326    -711.044    -719.851
  C       66.626    -711.098    -722.341
  O       67.592    -711.485    -721.367
  C       67.294    -710.306    -723.451
  O       67.583    -708.958    -723.015
  C       68.640    -710.888    -723.903
  O       68.438    -712.023    -724.708
  C       69.258    -709.691    -724.593
  O       68.732    -709.527    -725.918
  C       68.793    -708.521    -723.671
  N       69.821    -708.140    -722.704
  C       70.819    -707.296    -723.177
  O       70.813    -706.899    -724.345
  N       71.820    -706.919    -722.299
  C       71.820    -707.332    -721.079
  N       72.844    -706.948    -720.264
  C       70.763    -708.226    -720.536
  C       69.809    -708.600    -721.398
  O       66.143    -711.709    -719.198
  O       68.704    -711.406    -719.110
  H       67.777    -709.362    -725.792
  H       68.565    -711.474    -718.149
  H       70.802    -708.563    -719.500
  H       68.996    -709.240    -721.081
  H       68.537    -707.644    -724.282
  H       70.337    -709.799    -724.657
  H       69.248    -711.134    -723.020
  H       66.602    -710.239    -724.316
  H       73.542    -706.344    -720.688
  H       65.869    -710.480    -721.827
  H       72.876    -707.147    -719.293
  H       66.118    -711.977    -722.769
  P       69.559    -713.179    -724.781
  C       68.148    -714.593    -723.141
  O       68.806    -714.539    -724.421
  O       70.804    -712.891    -724.015
  O       69.812    -713.326    -726.384
  H       70.341    -712.550    -726.717
  H       67.684    -715.549    -723.019
  H       67.404    -713.826    -723.090
  H       68.868    -714.444    -722.363

 6  7  8  9  10  11  12  13  14  15  16  26  30  31  32  33  35 0
 6-311+G(2d,p)
 ****
 37  38 0
 6-311+G(2d,p)
 ****
 1  2  3  4  5  17  18  19  20  21  22  23  24  25 0
 3-21G
 ****
 27  28  29  34  36  39  40  41  42  43  44  45  46 0
 3-21G
 ****


