%nproc=1
%NoSave
%Mem=1900MB
#P OB98/GEN NMR

erre ene a

0 1
  C      134.945     446.117    -257.888
  O      134.004     447.126    -258.210
  P      134.234     448.088    -259.473
  C      132.616     447.106    -261.212
  O      133.968     447.195    -260.782
  C      132.530     447.138    -262.735
  O      133.170     448.343    -263.217
  C      133.221     445.954    -263.404
  O      132.479     445.577    -264.571
  C      134.564     446.508    -263.856
  O      135.084     445.773    -264.974
  C      134.202     447.967    -264.150
  N      138.570     449.715    -266.203
  C      137.656     448.834    -266.661
  N      136.530     448.397    -266.050
  C      136.364     449.014    -264.869
  C      137.213     449.938    -264.276
  C      138.366     450.290    -264.996
  N      139.291     451.203    -264.538
  N      136.722     450.329    -263.047
  C      135.595     449.664    -262.906
  N      135.327     448.865    -263.986
  O      135.529     448.822    -259.480
  O      132.983     449.084    -259.455
  H      135.813     446.307    -265.356
  H      133.263     449.980    -259.717
  H      137.853     448.419    -267.645
  H      134.943     449.720    -262.046
  H      133.802     448.089    -265.163
  H      135.286     446.430    -263.035
  H      133.337     445.091    -262.736
  H      131.474     447.183    -263.029
  H      132.063     447.963    -260.805
  H      140.020     451.481    -265.169
  H      139.052     451.757    -263.724
  H      132.163     446.189    -260.816
  P      132.514     444.014    -264.948
  C      130.085     443.276    -264.375
  O      131.434     443.335    -263.979
  O      133.901     443.460    -264.923
  O      131.830     444.032    -266.396
  H      131.243     444.809    -266.507
  H      129.502     442.816    -263.574
  H      129.981     442.664    -265.278
  H      129.695     444.283    -264.565
  H      134.616     445.586    -257.019
  H      135.896     446.566    -257.692
  H      135.034     445.437    -258.709

 3  4  5  6  7  8  9  10  11  12  22  25  29  30  31  32 0
 6-311+G(2d,p)
 ****
 33  36  37 0
 6-311+G(2d,p)
 ****
 1  2  13  14  15  16  17  18  19  20  21  23  24  26 0
 3-21G
 ****
 27  28  34  35  38  39  40  41  42  43  44  45  46  47  48 0
 3-21G
 ****


