%nproc=1
%NoSave
%Mem=1900MB
#P OB98/GEN NMR

erre ene a

0 1
  C     -210.530    -582.532    -331.271
  O     -209.196    -582.898    -331.553
  P     -207.971    -581.966    -331.113
  C     -207.274    -583.898    -329.580
  O     -207.430    -582.492    -329.698
  C     -206.128    -584.252    -328.637
  O     -204.900    -583.651    -329.125
  C     -206.336    -583.787    -327.190
  O     -205.806    -584.805    -326.334
  C     -205.490    -582.531    -327.108
  O     -205.127    -582.206    -325.776
  C     -204.324    -582.912    -328.030
  N     -203.587    -581.751    -328.501
  C     -202.837    -581.051    -327.555
  O     -202.925    -581.340    -326.359
  N     -202.026    -580.033    -327.984
  C     -202.103    -579.630    -329.214
  N     -201.233    -578.666    -329.615
  C     -203.067    -580.186    -330.182
  C     -203.741    -581.262    -329.776
  O     -208.239    -580.500    -331.169
  O     -206.791    -582.368    -332.119
  H     -206.445    -581.560    -332.546
  H     -205.941    -582.019    -325.261
  H     -203.185    -579.738    -331.155
  H     -204.453    -581.761    -330.424
  H     -203.631    -583.587    -327.513
  H     -206.048    -581.686    -327.526
  H     -207.388    -583.622    -326.945
  H     -205.986    -585.340    -328.664
  H     -200.557    -578.337    -328.938
  H     -207.059    -584.302    -330.571
  H     -201.001    -578.519    -330.598
  H     -208.213    -584.349    -329.232
  P     -206.607    -585.163    -324.988
  C     -207.822    -587.326    -325.746
  O     -207.932    -585.963    -325.402
  O     -207.198    -583.727    -324.576
  O     -205.801    -585.722    -323.861
  H     -207.354    -583.714    -323.613
  H     -208.803    -587.687    -326.063
  H     -207.498    -587.913    -324.885
  H     -207.117    -587.458    -326.573
  H     -211.193    -583.284    -331.646
  H     -210.750    -581.596    -331.741
  H     -210.658    -582.439    -330.213

 3  4  5  6  7  8  9  10  11  12  13  24  27  28  29  30  32 0
 6-311+G(2d,p)
 ****
 34  35 0
 6-311+G(2d,p)
 ****
 1  2  14  15  16  17  18  19  20  21  22  23  25  26 0
 3-21G
 ****
 31  33  36  37  38  39  40  41  42  43  44  45  46 0
 3-21G
 ****


