%nproc=1
%NoSave
%Mem=1900MB
#P OB98/GEN NMR

erre ene a

0 1
  C      -88.538     721.202    -368.778
  O      -89.661     720.673    -368.104
  H      -87.666     720.589    -368.539
  H      -88.341     722.231    -368.472
  H      -88.692     721.157    -369.866
  P      -91.070     721.422    -368.263
  C      -92.581     719.671    -367.119
  O      -91.972     720.948    -367.015
  C      -93.327     719.337    -365.821
  O      -92.396     719.086    -364.758
  C      -94.254     720.453    -365.331
  O      -95.489     720.410    -366.022
  C      -94.398     720.060    -363.865
  O      -95.300     718.948    -363.741
  C      -92.959     719.613    -363.528
  N      -91.751     722.462    -359.492
  C      -92.800     721.587    -359.668
  N      -93.672     721.482    -358.652
  N      -92.997     720.885    -360.760
  C      -92.085     721.149    -361.738
  C      -91.015     722.013    -361.679
  C      -90.767     722.736    -360.457
  O      -89.836     723.495    -360.232
  N      -90.360     722.088    -362.892
  C      -91.015     721.227    -363.666
  N      -92.086     720.641    -363.010
  O      -91.743     721.281    -369.597
  O      -90.747     722.953    -367.917
  H      -95.110     718.340    -364.499
  H      -90.525     723.458    -368.717
  H      -91.661     722.988    -358.641
  H      -90.763     720.998    -364.684
  H      -92.948     718.793    -362.790
  H      -94.785     720.871    -363.249
  H      -93.660     722.096    -357.841
  H      -93.773     721.431    -365.388
  H      -94.486     720.877    -358.782
  H      -93.889     718.395    -365.990
  H      -91.790     718.931    -367.298
  H      -93.289     719.637    -367.958
  P      -96.124     721.730    -366.679
  C      -96.916     720.216    -368.620
  O      -97.277     721.208    -367.671
  O      -95.142     722.655    -367.305
  O      -96.980     722.389    -365.504
  H      -96.447     722.974    -364.905
  H      -97.770     719.961    -369.212
  H      -96.563     719.345    -368.109
  H      -96.143     720.595    -369.255

 6  7  8  9  10  11  12  13  14  15  26  29  33  34 0
 6-311+G(2d,p)
 ****
 36  38  39  40  41 0
 6-311+G(2d,p)
 ****
 1  2  3  4  5  16  17  18  19  20  21  22  23  24  25 0
 3-21G
 ****
 27  28  30  31  32  35  37  42  43  44  45  46  47 0
 3-21G
 ****
 48  49 0
 3-21G
 ****


