%nproc=1
%NoSave
%Mem=1900MB
#P OB98/GEN NMR

erre ene a

0 1
  C      -20.713    -277.816     143.458
  O      -21.816    -277.216     144.112
  P      -23.294    -277.404     143.525
  C      -24.820    -275.843     142.109
  O      -23.510    -276.258     142.426
  C      -24.970    -275.585     140.603
  O      -24.163    -274.431     140.267
  C      -24.477    -276.716     139.706
  O      -25.041    -276.542     138.406
  C      -22.990    -276.444     139.655
  O      -22.365    -277.072     138.539
  C      -22.931    -274.895     139.663
  N      -21.770    -274.401     140.425
  C      -20.511    -274.653     139.887
  O      -20.347    -275.189     138.791
  N      -19.445    -274.346     140.687
  C      -19.530    -273.867     141.962
  O      -18.603    -273.889     142.763
  C      -20.862    -273.401     142.378
  C      -21.912    -273.709     141.613
  O      -24.220    -276.941     144.745
  O      -23.620    -278.785     143.073
  H      -22.864    -276.791     137.738
  H      -24.518    -277.717     145.255
  H      -18.543    -274.660     140.357
  H      -20.948    -272.878     143.322
  H      -22.914    -273.424     141.921
  H      -22.865    -274.491     138.646
  H      -22.522    -276.841     140.563
  H      -24.697    -277.718     140.087
  H      -26.017    -275.342     140.380
  H      -25.061    -274.943     142.681
  H      -25.544    -276.606     142.413
  P      -25.551    -277.852     137.631
  C      -24.446    -279.941     136.628
  O      -24.256    -278.761     137.382
  O      -26.407    -277.609     136.432
  O      -26.338    -278.662     138.768
  H      -26.933    -279.314     138.356
  H      -23.519    -280.178     136.100
  H      -25.252    -279.824     135.897
  H      -24.690    -280.764     137.305
  H      -19.814    -277.584     143.989
  H      -20.644    -277.441     142.458
  H      -20.848    -278.877     143.432

 3  4  5  6  7  8  9  10  11  12  13  23  28  29  30  31  32 0
 6-311+G(2d,p)
 ****
 33  34 0
 6-311+G(2d,p)
 ****
 1  2  14  15  16  17  18  19  20  21  22  24  25  26  27 0
 3-21G
 ****
 35  36  37  38  39  40  41  42  43  44  45 0
 3-21G
 ****


