%nproc=1
%NoSave
%Mem=1900MB
#P OB98/GEN NMR

erre ene a

0 1
  C      166.460    -391.546      12.742
  O      167.745    -392.104      13.027
  P      168.923    -391.149      13.535
  C      169.677    -393.146      14.995
  O      170.080    -392.040      14.198
  C      170.540    -394.370      14.673
  O      170.308    -394.839      13.323
  C      172.033    -394.071      14.727
  O      172.587    -393.820      16.004
  C      172.622    -395.220      13.926
  O      172.774    -396.394      14.724
  C      171.535    -395.436      12.846
  N      171.917    -394.893      11.543
  C      172.333    -395.821      10.593
  O      172.422    -397.027      10.819
  N      172.679    -395.310       9.370
  C      172.682    -393.991       9.026
  O      173.023    -393.584       7.922
  C      172.259    -393.055      10.081
  C      171.904    -393.541      11.271
  O      168.499    -389.964      14.332
  O      169.609    -390.674      12.159
  H      173.282    -397.042      14.198
  H      169.827    -389.725      12.247
  H      172.972    -395.968       8.667
  H      172.259    -391.996       9.844
  H      171.588    -392.869      12.063
  H      171.332    -396.507      12.715
  H      173.609    -394.972      13.531
  H      172.214    -393.157      14.146
  H      170.268    -395.179      15.354
  H      168.623    -393.368      14.817
  H      169.758    -392.872      16.054
  P      173.082    -392.372      16.475
  C      171.864    -392.461      18.763
  O      173.094    -392.341      18.081
  O      172.516    -391.188      15.772
  O      174.656    -392.456      16.144
  H      174.964    -391.564      15.889
  H      172.056    -392.402      19.839
  H      171.398    -393.424      18.543
  H      171.193    -391.647      18.486
  H      165.799    -392.322      12.417
  H      166.554    -390.810      11.971
  H      166.066    -391.089      13.625

 3  4  5  6  7  8  9  10  11  12  13  23  28  29  30  31  32 0
 6-311+G(2d,p)
 ****
 33  34 0
 6-311+G(2d,p)
 ****
 1  2  14  15  16  17  18  19  20  21  22  24  25  26  27 0
 3-21G
 ****
 35  36  37  38  39  40  41  42  43  44  45 0
 3-21G
 ****


