%nproc=1
%NoSave
%Mem=1900MB
#P OB98/GEN NMR

erre ene a

0 1
  C      774.352    -249.674     694.684
  O      775.086    -248.474     694.536
  P      775.702    -248.064     693.108
  C      778.185    -248.722     693.293
  O      776.916    -249.081     692.782
  C      779.293    -249.211     692.365
  O      779.569    -250.605     692.593
  C      778.954    -249.112     690.870
  O      778.981    -247.772     690.402
  C      780.021    -250.041     690.276
  O      781.269    -249.362     690.152
  C      780.103    -251.148     691.357
  N      779.406    -252.355     690.964
  C      780.201    -253.342     690.338
  O      781.387    -253.123     690.079
  N      779.615    -254.545     690.021
  C      778.328    -254.711     690.191
  N      777.819    -255.940     689.904
  C      777.449    -253.639     690.676
  C      778.040    -252.492     691.061
  O      776.030    -246.619     692.953
  O      774.577    -248.514     692.071
  H      774.394    -247.772     691.462
  H      781.525    -249.058     691.047
  H      776.375    -253.806     690.736
  H      777.478    -251.674     691.465
  H      781.158    -251.368     691.558
  H      779.724    -250.389     689.275
  H      777.966    -249.534     690.692
  H      780.203    -248.635     692.576
  H      778.470    -256.652     689.599
  H      778.312    -249.158     694.282
  H      776.947    -256.269     690.286
  H      778.241    -247.621     693.400
  P      777.775    -247.300     689.465
  C      778.958    -248.130     687.307
  O      777.809    -248.208     688.153
  O      778.247    -245.861     688.953
  O      776.446    -247.235     690.178
  H      777.469    -245.272     688.892
  H      778.998    -249.024     686.685
  H      779.878    -248.084     687.900
  H      778.875    -247.243     686.676
  H      774.027    -249.770     695.699
  H      774.974    -250.506     694.428
  H      773.500    -249.653     694.037

 3  4  5  6  7  8  9  10  11  12  13  24  27  28  29  30  32 0
 6-311+G(2d,p)
 ****
 34  35 0
 6-311+G(2d,p)
 ****
 1  2  14  15  16  17  18  19  20  21  22  23  25  26 0
 3-21G
 ****
 31  33  36  37  38  39  40  41  42  43  44  45  46 0
 3-21G
 ****


