%nproc=1
%NoSave
%Mem=1900MB
#P OB98/GEN NMR

erre ene a

0 1
  C     -162.183    -262.851    -133.395
  O     -162.611    -262.740    -134.741
  P     -163.711    -263.742    -135.347
  C     -164.801    -261.844    -136.724
  O     -164.124    -263.097    -136.754
  C     -164.470    -261.040    -137.986
  O     -163.121    -260.539    -137.895
  C     -164.524    -261.850    -139.279
  O     -165.868    -262.062    -139.685
  C     -163.684    -260.971    -140.198
  O     -164.471    -259.862    -140.685
  C     -162.593    -260.450    -139.237
  N     -161.337    -261.194    -139.362
  C     -160.545    -260.889    -140.474
  O     -160.887    -260.033    -141.286
  N     -159.342    -261.538    -140.617
  C     -158.976    -262.441    -139.745
  N     -157.747    -262.994    -139.901
  C     -159.810    -262.815    -138.590
  C     -160.961    -262.167    -138.457
  O     -164.858    -264.042    -134.436
  O     -162.876    -265.031    -135.786
  H     -163.875    -259.320    -141.235
  H     -162.779    -265.706    -135.064
  H     -159.468    -263.577    -137.897
  H     -161.621    -262.376    -137.629
  H     -162.398    -259.389    -139.418
  H     -163.288    -261.505    -141.066
  H     -164.030    -262.817    -139.144
  H     -165.152    -260.186    -138.036
  H     -157.141    -262.574    -140.605
  H     -164.463    -261.285    -135.849
  H     -157.273    -263.464    -139.141
  H     -165.878    -262.014    -136.647
  P     -166.129    -263.165    -140.824
  C     -168.358    -264.164    -139.914
  O     -167.728    -263.347    -140.890
  O     -165.604    -264.520    -140.149
  O     -165.456    -262.883    -142.125
  H     -164.716    -264.746    -140.493
  H     -169.427    -263.986    -139.958
  H     -167.988    -263.910    -138.919
  H     -168.153    -265.218    -140.128
  H     -161.452    -262.097    -133.190
  H     -161.752    -263.817    -133.236
  H     -163.021    -262.723    -132.742

 3  4  5  6  7  8  9  10  11  12  13  23  27  28  29  30  32 0
 6-311+G(2d,p)
 ****
 34  35 0
 6-311+G(2d,p)
 ****
 1  2  14  15  16  17  18  19  20  21  22  24  25  26 0
 3-21G
 ****
 31  33  36  37  38  39  40  41  42  43  44  45  46 0
 3-21G
 ****


