%nproc=1
%NoSave
%Mem=1900MB
#P OB98/GEN NMR

erre ene a

0 1
  C     -100.338     317.209    -117.424
  O      -99.150     316.449    -117.302
  H     -101.085     316.805    -116.736
  H     -100.723     317.142    -118.445
  H     -100.146     318.254    -117.165
  P      -97.914     316.897    -118.220
  C      -96.465     315.847    -116.333
  O      -96.652     316.036    -117.732
  C      -95.610     314.607    -116.094
  O      -94.407     314.680    -116.895
  C      -95.131     314.456    -114.656
  O      -96.137     313.946    -113.801
  C      -93.953     313.513    -114.837
  O      -94.379     312.147    -114.900
  C      -93.377     313.953    -116.188
  N      -88.293     313.897    -115.705
  C      -89.190     312.911    -115.931
  N      -90.530     313.011    -116.061
  C      -90.919     314.293    -115.961
  C      -90.123     315.403    -115.737
  C      -88.744     315.169    -115.608
  N      -87.833     316.168    -115.354
  N      -90.893     316.546    -115.657
  C      -92.131     316.137    -115.839
  N      -92.196     314.783    -116.031
  O      -97.592     318.375    -117.696
  O      -98.172     316.871    -119.688
  H      -93.640     311.648    -115.304
  H      -97.985     319.029    -118.307
  H      -88.778     311.910    -116.010
  H      -93.008     316.773    -115.833
  H      -93.090     313.101    -116.815
  H      -93.251     313.605    -114.009
  H      -94.759     315.419    -114.279
  H      -96.176     313.722    -116.410
  H      -97.438     315.712    -115.852
  H      -95.981     316.736    -115.918
  H      -86.868     315.920    -115.204
  H      -88.174     317.102    -115.165
  P      -96.121     314.410    -112.268
  C      -98.357     313.104    -111.958
  O      -97.060     313.397    -111.454
  O      -96.950     315.779    -112.274
  O      -94.758     314.589    -111.689
  H      -96.569     316.400    -111.621
  H      -98.848     312.417    -111.301
  H      -98.271     312.667    -112.931
  H      -98.928     314.007    -112.021

 6  7  8  9  10  11  12  13  14  15  25  28  32  33  34  35 0
 6-311+G(2d,p)
 ****
 36  37  40 0
 6-311+G(2d,p)
 ****
 1  2  3  4  5  16  17  18  19  20  21  22  23  24 0
 3-21G
 ****
 26  27  29  30  31  38  39 41  42  43  44  45  46  47  48 0
 3-21G
 ****


