%nproc=1
%NoSave
%Mem=1900MB
#P OB98/GEN NMR

erre ene a

0 1
  C      -63.663     -41.185      46.503
  O      -63.688     -40.624      45.210
  P      -62.362     -40.034      44.533
  C      -63.106     -37.628      45.074
  O      -62.713     -38.539      44.055
  C      -63.439     -36.261      44.465
  O      -63.701     -35.318      45.551
  C      -62.290     -35.690      43.610
  O      -62.676     -35.294      42.293
  C      -61.735     -34.583      44.490
  O      -60.996     -33.604      43.785
  C      -62.994     -34.106      45.222
  N      -62.686     -33.302      46.401
  C      -62.822     -31.923      46.282
  O      -63.191     -31.347      45.263
  N      -62.456     -31.188      47.375
  C      -61.871     -31.672      48.506
  O      -61.477     -30.946      49.407
  C      -61.716     -33.134      48.559
  C      -62.143     -33.875      47.534
  O      -61.750     -40.888      43.475
  O      -61.405     -39.764      45.788
  H      -60.689     -32.939      44.428
  H      -61.759     -39.142      46.447
  H      -62.550     -30.187      47.302
  H      -61.245     -33.546      49.440
  H      -62.042     -34.955      47.545
  H      -63.640     -33.521      44.565
  H      -61.048     -35.042      45.211
  H      -61.514     -36.445      43.441
  H      -64.353     -36.372      43.875
  H      -62.281     -37.513      45.781
  H      -63.959     -38.034      45.628
  P      -62.275     -36.061      40.948
  C      -60.258     -34.431      40.763
  O      -61.305     -35.112      40.102
  O      -63.417     -36.641      40.182
  O      -61.294     -37.220      41.458
  H      -61.353     -37.985      40.857
  H      -60.044     -33.507      40.220
  H      -59.361     -35.056      40.755
  H      -60.526     -34.184      41.793
  H      -64.645     -41.518      46.766
  H      -63.336     -40.447      47.206
  H      -62.989     -42.016      46.518

 3  4  5  6  7  8  9  10  11  12  13  23  28  29  30  31  32 0
 6-311+G(2d,p)
 ****
 33  34 0
 6-311+G(2d,p)
 ****
 1  2  14  15  16  17  18  19  20  21  22  24  25  26  27 0
 3-21G
 ****
 35  36  37  38  39  40  41  42  43  44  45 0
 3-21G
 ****


