%nproc=1
%NoSave
%Mem=1900MB
#P OB98/GEN NMR

erre ene a

0 1
  C     -988.639     -31.084    -570.111
  O     -988.675     -32.469    -569.836
  H     -988.001     -30.919    -570.986
  H     -988.224     -30.531    -569.265
  H     -989.643     -30.715    -570.342
  P     -989.455     -32.965    -568.526
  C     -990.567     -34.985    -569.693
  O     -990.761     -33.741    -569.036
  C     -990.885     -34.863    -571.190
  O     -989.954     -33.925    -571.795
  C     -990.757     -36.196    -571.958
  O     -991.690     -36.148    -573.048
  C     -989.333     -36.109    -572.467
  O     -989.086     -37.058    -573.478
  C     -989.266     -34.629    -572.858
  N     -987.902     -34.157    -573.031
  C     -987.402     -34.178    -574.337
  O     -988.100     -34.588    -575.261
  N     -986.111     -33.762    -574.556
  C     -985.364     -33.416    -573.549
  N     -984.094     -33.028    -573.835
  C     -985.837     -33.437    -572.145
  C     -987.106     -33.814    -571.961
  O     -989.712     -31.921    -567.490
  O     -988.532     -34.142    -567.951
  H     -988.137     -37.052    -573.741
  H     -988.048     -33.828    -567.164
  H     -985.172     -33.167    -571.344
  H     -987.541     -33.861    -570.973
  H     -989.821     -34.444    -573.790
  H     -988.623     -36.318    -571.662
  H     -990.952     -37.070    -571.335
  H     -991.891     -34.438    -571.305
  H     -983.810     -33.039    -574.803
  H     -991.239     -35.714    -569.226
  H     -983.420     -32.760    -573.127
  H     -989.536     -35.324    -569.563
  P     -993.240     -36.538    -572.888
  C     -994.465     -34.492    -573.868
  O     -994.102     -35.205    -572.683
  O     -993.495     -37.591    -571.862
  O     -993.684     -37.057    -574.338
  H     -994.387     -37.728    -574.233
  H     -995.035     -33.626    -573.603
  H     -995.052     -35.126    -574.500
  H     -993.580     -34.191    -574.388

 6  7  8  9  10  11  12  13  14  15  16  26  30  31  32  33  35 0
 6-311+G(2d,p)
 ****
 37  38 0
 6-311+G(2d,p)
 ****
 1  2  3  4  5  17  18  19  20  21  22  23  24  25 0
 3-21G
 ****
 27  28  29  34  36  39  40  41  42  43  44  45  46 0
 3-21G
 ****


