%nproc=1
%NoSave
%Mem=1900MB
#P OB98/GEN NMR

erre ene a

0 1
  C       51.299    -251.196      21.133
  O       52.222    -251.695      22.115
  P       53.718    -251.110      22.152
  C       54.804    -248.871      22.963
  O       53.733    -249.797      23.074
  C       54.671    -247.780      24.029
  O       53.388    -247.123      23.925
  C       54.741    -248.291      25.461
  O       56.069    -248.587      25.856
  C       54.126    -247.124      26.227
  O       55.104    -246.098      26.472
  C       53.052    -246.627      25.241
  N       51.701    -247.025      25.630
  C       51.166    -246.385      26.742
  O       51.791    -245.570      27.418
  N       49.888    -246.743      27.078
  C       49.136    -247.706      26.464
  O       48.002    -247.996      26.825
  C       49.787    -248.404      25.347
  C       51.021    -248.041      24.990
  O       53.865    -250.482      20.683
  O       54.799    -252.106      22.412
  H       55.779    -246.490      27.061
  H       54.804    -250.494      20.416
  H       49.468    -246.270      27.863
  H       49.235    -249.190      24.848
  H       51.515    -248.547      24.165
  H       53.084    -245.533      25.165
  H       53.729    -247.426      27.201
  H       54.097    -249.171      25.575
  H       55.454    -247.030      23.850
  H       54.778    -248.407      21.973
  H       55.752    -249.407      23.075
  P       56.369    -250.102      26.298
  C       56.723    -252.315      24.951
  O       56.394    -250.942      24.934
  O       54.985    -250.493      27.004
  O       57.572    -250.229      27.174
  H       54.224    -250.055      26.583
  H       56.384    -252.800      25.869
  H       57.808    -252.426      24.860
  H       56.244    -252.802      24.096
  H       50.356    -251.688      21.247
  H       51.684    -251.386      20.153
  H       51.170    -250.142      21.268

 3  4  5  6  7  8  9  10  11  12  13  23  28  29  30  31  32 0
 6-311+G(2d,p)
 ****
 33  34 0
 6-311+G(2d,p)
 ****
 1  2  14  15  16  17  18  19  20  21  22  24  25  26 0
 3-21G
 ****
 27  35  36  37  38  39  40  41  42  43  44  45 0
 3-21G
 ****


