%nproc=1
%NoSave
%Mem=1900MB
#P OB98/GEN NMR

erre ene a

0 1
  C     -394.370    -716.818     124.516
  O     -395.636    -717.090     123.933
  H     -394.516    -716.534     125.563
  H     -393.895    -715.976     123.990
  H     -393.734    -717.705     124.469
  P     -395.635    -717.535     122.393
  C     -396.340    -719.977     123.006
  O     -396.632    -718.782     122.289
  C     -397.488    -720.972     122.899
  O     -398.572    -720.536     123.779
  C     -398.086    -721.091     121.482
  O     -398.608    -722.423     121.345
  C     -399.239    -720.086     121.558
  O     -400.128    -720.263     120.479
  C     -399.758    -720.398     122.963
  N     -404.565    -718.681     123.217
  C     -404.028    -719.785     122.650
  N     -402.750    -720.180     122.634
  C     -401.968    -719.320     123.313
  C     -402.368    -718.149     123.950
  C     -403.740    -717.831     123.889
  N     -404.279    -716.703     124.455
  N     -401.279    -717.512     124.543
  C     -400.253    -718.282     124.260
  N     -400.620    -719.372     123.508
  O     -394.181    -718.187     122.203
  O     -395.891    -716.440     121.405
  H     -400.668    -721.072     120.603
  H     -393.568    -717.531     121.851
  H     -404.740    -720.427     122.129
  H     -399.231    -718.100     124.566
  H     -400.306    -721.355     122.987
  H     -398.858    -719.061     121.492
  H     -397.362    -720.892     120.689
  H     -397.162    -721.949     123.273
  H     -396.160    -719.714     124.058
  H     -395.421    -720.426     122.599
  H     -405.276    -716.541     124.354
  H     -403.670    -716.056     124.949
  P     -399.141    -722.893     119.896
  C     -397.871    -725.168     119.632
  O     -399.124    -724.496     119.834
  O     -397.923    -722.497     118.942
  O     -400.414    -722.237     119.418
  H     -398.251    -722.308     118.024
  H     -398.032    -726.226     119.615
  H     -397.202    -724.922     120.430
  H     -397.446    -724.857     118.701

 6  7  8  9  10  11  12  13  14  15  25  28  32  33  34  35 0
 6-311+G(2d,p)
 ****
 36  37  40 0
 6-311+G(2d,p)
 ****
 1  2  3  4  5  16  17  18  19  20  21  22  23  24 0
 3-21G
 ****
 26  27  29  30  31  38  39 41  42  43  44  45  46  47  48 0
 3-21G
 ****


