%nproc=1
%NoSave
%Mem=1900MB
#P OB98/GEN NMR

erre ene a

0 1
  C     -488.202     992.682     123.655
  O     -488.458     991.537     124.477
  P     -489.339     990.356     123.850
  C     -488.914     987.987     124.824
  O     -489.582     989.238     124.974
  C     -487.499     988.030     125.414
  O     -487.503     988.669     126.725
  C     -486.870     986.649     125.592
  O     -485.453     986.776     125.451
  C     -487.175     986.337     127.050
  O     -486.337     985.308     127.560
  C     -486.986     987.721     127.671
  N     -486.526     987.050     132.658
  C     -485.639     986.771     131.631
  N     -484.438     986.278     131.991
  N     -485.906     986.969     130.363
  C     -487.138     987.504     130.153
  C     -488.106     987.804     131.082
  C     -487.808     987.556     132.476
  O     -488.560     987.761     133.422
  N     -489.236     988.302     130.478
  C     -488.943     988.292     129.188
  N     -487.676     987.848     128.947
  O     -488.318     989.650     122.834
  O     -490.565     990.824     123.136
  H     -486.527     985.218     128.515
  H     -488.571     989.856     121.921
  H     -486.270     986.869     133.607
  H     -489.611     988.591     128.397
  H     -485.929     987.953     127.857
  H     -488.213     985.999     127.144
  H     -484.148     986.150     132.949
  H     -487.231     985.880     124.911
  H     -483.751     986.110     131.263
  H     -486.861     988.640     124.760
  H     -488.856     987.715     123.765
  H     -489.519     987.205     125.302
  P     -484.754     985.903     124.306
  C     -482.583     987.284     123.985
  O     -483.174     986.111     124.476
  O     -485.093     986.698     122.957
  O     -485.215     984.480     124.236
  H     -485.080     986.096     122.196
  H     -482.374     987.966     124.818
  H     -483.237     987.807     123.271
  H     -481.649     987.040     123.487
  H     -487.606     993.385     124.199
  H     -489.130     993.138     123.380
  H     -487.679     992.378     122.773

 3  4  5  6  7  8  9  10  11  12  23  26  30  31 0
 6-311+G(2d,p)
 ****
 33  35  36  37  38 0
 6-311+G(2d,p)
 ****
 1  2  13  14  15  16  17  18  19  20  21  22  24  25 0
 3-21G
 ****
 27  28  29  32  34  39  40  41  42  43  44  45  46  47  48  49 0
 3-21G
 ****


