%nproc=1
%NoSave
%Mem=1900MB
#P OB98/GEN NMR

erre ene a

0 1
  C      526.872     565.492     100.739
  O      526.010     565.224     101.840
  P      524.423     565.285     101.583
  C      524.244     565.851     104.155
  O      523.812     566.099     102.834
  C      524.086     567.098     105.021
  O      525.092     568.076     104.657
  C      522.743     567.815     104.845
  O      521.701     567.143     105.537
  C      523.066     569.211     105.382
  O      523.049     569.211     106.824
  C      524.526     569.393     104.878
  N      524.629     570.237     103.688
  C      524.842     571.589     103.903
  O      524.960     572.084     105.032
  N      524.910     572.351     102.780
  C      524.725     571.941     101.494
  O      524.750     572.692     100.518
  C      524.471     570.505     101.328
  C      524.435     569.729     102.419
  O      524.024     563.762     101.855
  O      524.064     565.804     100.227
  H      524.643     563.333     102.471
  H      522.118     569.066     107.095
  H      525.096     573.346     102.910
  H      524.304     570.133     100.323
  H      524.234     568.666     102.326
  H      525.139     569.850     105.680
  H      522.380     569.972     105.035
  H      522.487     567.883     103.779
  H      524.241     566.813     106.065
  H      525.306     565.555     104.132
  H      523.673     565.019     104.568
  P      520.193     567.573     105.156
  C      519.504     566.605     107.491
  O      519.393     567.653     106.546
  O      519.648     566.234     104.449
  O      520.124     568.807     104.301
  H      519.927     565.438     104.934
  H      519.194     566.974     108.479
  H      520.533     566.237     107.556
  H      518.840     565.787     107.208
  H      527.891     565.416     101.057
  H      526.686     566.480     100.372
  H      526.687     564.782      99.960

 3  4  5  6  7  8  9  10  11  12  13  24  28  29  30  31  32 0
 6-311+G(2d,p)
 ****
 33  34 0
 6-311+G(2d,p)
 ****
 1  2  14  15  16  17  18  19  20  21  22  23  25  26  27 0
 3-21G
 ****
 35  36  37  38  39  40  41  42  43  44  45 0
 3-21G
 ****


