%nproc=1
%NoSave
%Mem=1900MB
#P OB98/GEN NMR

erre ene a

0 1
  C      118.106    -267.056     -96.918
  O      118.480    -267.629     -98.162
  P      118.272    -269.210     -98.346
  C      116.477    -268.563    -100.094
  O      116.816    -269.405     -98.999
  C      116.004    -269.388    -101.284
  O      115.610    -268.484    -102.356
  C      117.063    -270.343    -101.856
  O      116.451    -271.610    -102.141
  C      117.446    -269.706    -103.180
  O      117.944    -270.661    -104.109
  C      116.111    -269.070    -103.574
  N      115.622    -268.296    -108.541
  C      115.211    -269.365    -107.770
  N      114.639    -270.396    -108.429
  N      115.349    -269.423    -106.471
  C      115.907    -268.305    -105.944
  C      116.350    -267.178    -106.600
  C      116.244    -267.157    -108.044
  O      116.671    -266.278    -108.791
  N      116.843    -266.248    -105.722
  C      116.705    -266.809    -104.534
  N      116.190    -268.078    -104.623
  O      118.087    -269.722     -96.842
  O      119.388    -269.922     -99.026
  H      118.654    -271.154    -103.654
  H      118.746    -270.416     -96.645
  H      115.508    -268.313    -109.537
  H      116.996    -266.355    -103.595
  H      115.398    -269.842    -103.896
  H      118.218    -268.948    -103.004
  H      114.470    -270.402    -109.422
  H      117.930    -270.492    -101.202
  H      114.311    -271.180    -107.880
  H      115.102    -269.939    -100.990
  H      117.357    -267.982    -100.387
  H      115.689    -267.872     -99.777
  P      117.430    -272.884    -102.123
  C      116.823    -273.106     -99.601
  O      117.834    -273.101    -100.591
  O      118.770    -272.329    -102.797
  O      116.883    -274.077    -102.833
  H      119.284    -273.061    -103.191
  H      115.818    -273.114    -100.036
  H      116.930    -272.212     -98.981
  H      116.944    -273.993     -98.974
  H      118.299    -266.004     -96.938
  H      118.674    -267.508     -96.132
  H      117.063    -267.225     -96.747

 3  4  5  6  7  8  9  10  11  12  23  26  30  31  33  0
 6-311+G(2d,p)
 ****
 35  36  37  38 0
 6-311+G(2d,p)
 ****
 1  2  13  14  15  16  17  18  19  20  21  22  24  25  27  28  29 0
 3-21G
 ****
 32  34  39  40  41  42  43  44  45  46  47  48  49 0
 3-21G
 ****


