%nproc=1
%NoSave
%Mem=1900MB
#P OB98/GEN NMR

erre ene a

0 1
  C     -134.818     688.116     229.272
  O     -134.777     689.526     229.382
  H     -133.916     687.777     228.761
  H     -135.690     687.817     228.682
  H     -134.864     687.659     230.263
  P     -135.928     690.222     230.250
  C     -137.603     690.907     228.346
  O     -137.303     690.050     229.442
  C     -139.041     691.415     228.455
  O     -139.980     690.324     228.389
  C     -139.356     692.087     229.775
  O     -138.742     693.356     229.908
  C     -140.877     692.145     229.700
  O     -141.310     693.226     228.859
  C     -141.199     690.782     229.042
  N     -141.698     689.804     230.000
  C     -141.609     688.464     229.604
  O     -141.134     688.170     228.505
  N     -142.106     687.494     230.440
  C     -142.613     687.832     231.586
  N     -143.091     686.828     232.373
  C     -142.700     689.231     232.057
  C     -142.230     690.157     231.219
  O     -135.606     691.778     230.074
  O     -136.018     689.769     231.671
  H     -142.274     693.126     228.757
  H     -135.536     692.061     229.142
  H     -143.123     689.466     233.024
  H     -142.256     691.203     231.487
  H     -141.952     690.903     228.252
  H     -141.335     692.304     230.679
  H     -139.085     691.434     230.612
  H     -139.229     692.083     227.606
  H     -143.038     685.886     232.008
  H     -137.441     690.394     227.393
  H     -143.536     686.974     233.266
  H     -136.907     691.751     228.386
  P     -138.312     693.908     231.348
  C     -140.055     695.800     231.368
  O     -139.624     694.586     231.977
  O     -137.096     694.765     231.366
  O     -138.176     692.564     232.236
  H     -138.992     692.042     232.292
  H     -140.932     696.158     231.867
  H     -140.279     695.622     230.337
  H     -139.278     696.532     231.443

 6  7  8  9  10  11  12  13  14  15  16  26  30  31  32  33  35 0
 6-311+G(2d,p)
 ****
 37  38 0
 6-311+G(2d,p)
 ****
 1  2  3  4  5  17  18  19  20  21  22  23  24  25 0
 3-21G
 ****
 27  28  29  34  36  39  40  41  42  43  44  45  46 0
 3-21G
 ****


