%nproc=1
%NoSave
%Mem=1900MB
#P OB98/GEN NMR

erre ene a

0 1
  C       28.383     263.761     178.245
  O       28.978     262.756     177.407
  P       28.125     261.448     177.029
  C       28.606     259.886     179.073
  O       27.682     260.715     178.387
  C       27.865     258.945     180.029
  O       27.107     259.699     180.998
  C       26.848     258.037     179.348
  O       27.467     256.953     178.679
  C       25.990     257.607     180.534
  O       26.600     256.515     181.242
  C       25.987     258.883     181.402
  N       24.731     259.618     181.318
  C       23.587     258.939     181.730
  O       23.596     257.766     182.093
  N       22.417     259.651     181.679
  C       22.273     260.924     181.200
  O       21.195     261.502     181.160
  C       23.501     261.560     180.701
  C       24.652     260.884     180.779
  O       29.261     260.458     176.478
  O       27.053     261.642     176.008
  H       27.559     256.696     181.264
  H       28.869     259.840     175.834
  H       21.585     259.189     182.001
  H       23.428     262.558     180.292
  H       25.569     261.343     180.414
  H       26.169     258.624     182.454
  H       24.991     257.278     180.230
  H       26.231     258.623     178.655
  H       28.610     258.345     180.570
  H       29.293     260.510     179.651
  H       29.183     259.312     178.339
  P       27.306     256.905     177.080
  C       25.446     255.067     177.048
  O       25.803     256.414     176.823
  O       28.226     255.643     176.719
  O       27.708     258.177     176.416
  H       28.202     254.965     177.416
  H       26.015     254.631     177.875
  H       25.630     254.488     176.135
  H       24.380     255.020     177.288
  H       29.081     264.558     178.397
  H       28.123     263.330     179.189
  H       27.502     264.144     177.773

 3  4  5  6  7  8  9  10  11  12  13  23  28  29  30  31  32 0
 6-311+G(2d,p)
 ****
 33  34 0
 6-311+G(2d,p)
 ****
 1  2  14  15  16  17  18  19  20  21  22  24  25  26 0
 3-21G
 ****
 27  35  36  37  38  39  40  41  42  43  44  45 0
 3-21G
 ****


