%nproc=1
%NoSave
%Mem=1900MB
#P OB98/GEN NMR

erre ene a

0 1
  C      489.408    -353.861    -528.224
  O      490.643    -353.823    -528.918
  P      490.714    -354.299    -530.449
  C      492.285    -356.238    -529.823
  O      491.062    -355.864    -530.453
  C      492.697    -357.638    -530.252
  O      491.636    -358.582    -530.005
  C      493.026    -357.763    -531.733
  O      494.298    -357.216    -532.023
  C      492.909    -359.270    -531.936
  O      494.124    -359.927    -531.524
  C      491.756    -359.628    -530.989
  N      488.540    -363.065    -532.955
  C      489.793    -363.180    -532.470
  N      490.601    -362.210    -531.995
  C      489.997    -361.010    -532.088
  C      488.737    -360.733    -532.596
  C      487.981    -361.831    -533.024
  N      486.678    -361.734    -533.466
  N      488.489    -359.378    -532.546
  C      489.583    -358.851    -532.034
  N      490.490    -359.801    -531.676
  O      491.559    -353.460    -531.340
  O      489.184    -354.271    -530.924
  H      493.882    -360.848    -531.284
  H      489.089    -353.646    -531.666
  H      490.194    -364.192    -532.443
  H      489.758    -357.788    -531.877
  H      491.960    -360.557    -530.439
  H      492.731    -359.546    -532.974
  H      492.249    -357.263    -532.327
  H      493.561    -357.938    -529.641
  H      492.134    -356.208    -528.735
  H      486.177    -362.593    -533.611
  H      486.157    -360.895    -533.236
  H      493.063    -355.507    -530.083
  P      494.782    -357.091    -533.542
  C      496.412    -359.010    -533.057
  O      495.444    -358.492    -533.945
  O      495.601    -355.883    -533.862
  O      493.412    -357.090    -534.375
  H      493.505    -356.542    -535.182
  H      497.356    -358.486    -533.202
  H      496.549    -360.071    -533.266
  H      496.080    -358.897    -532.010
  H      489.550    -353.510    -527.223
  H      489.043    -354.866    -528.201
  H      488.699    -353.235    -528.724

 3  4  5  6  7  8  9  10  11  12  22  25  29  30  31  32 0
 6-311+G(2d,p)
 ****
 33  36  37 0
 6-311+G(2d,p)
 ****
 1  2  13  14  15  16  17  18  19  20  21  23  24  26 0
 3-21G
 ****
 27  28  34  35  38  39  40  41  42  43  44  45  46  47  48 0
 3-21G
 ****


