%nproc=1
%NoSave
%Mem=1900MB
#P OB98/GEN NMR

erre ene a

0 1
  C       -9.285     133.851     -97.632
  O       -9.276     135.244     -97.952
  P      -10.245     136.241     -97.159
  C      -12.787     136.540     -96.791
  O      -11.763     135.965     -97.593
  C      -13.851     137.187     -97.684
  O      -13.295     138.266     -98.475
  C      -14.434     136.220     -98.706
  O      -15.255     135.186     -98.207
  C      -15.046     137.162     -99.730
  O      -16.343     137.603     -99.331
  C      -14.041     138.339     -99.709
  N      -13.150     138.342    -100.869
  C      -12.952     139.574    -101.483
  O      -13.512     140.607    -101.123
  N      -12.107     139.574    -102.560
  C      -11.484     138.482    -103.090
  O      -10.754     138.535    -104.072
  C      -11.751     137.204    -102.413
  C      -12.559     137.191    -101.350
  O       -9.835     137.674     -97.154
  O      -10.207     135.650     -95.663
  H      -16.855     137.778    -100.143
  H      -10.170     136.405     -95.045
  H      -11.944     140.460    -103.013
  H      -11.279     136.315    -102.809
  H      -12.769     136.259    -100.837
  H      -14.575     139.298     -99.696
  H      -15.158     136.679    -100.706
  H      -13.596     135.715     -99.207
  H      -14.628     137.614     -97.047
  H      -12.356     137.283     -96.118
  H      -13.222     135.761     -96.157
  P      -14.942     133.630     -98.429
  C      -14.941     132.020    -100.461
  O      -15.428     133.219     -99.900
  O      -15.276     132.697     -97.313
  O      -13.343     133.652     -98.610
  H      -12.980     132.826     -98.242
  H      -15.360     131.910    -101.465
  H      -15.248     131.163     -99.857
  H      -13.851     132.050    -100.540
  H       -8.582     133.338     -98.254
  H      -10.265     133.453     -97.797
  H       -9.015     133.719     -96.605

 3  4  5  6  7  8  9  10  11  12  13  23  28  29  30  31  32 0
 6-311+G(2d,p)
 ****
 33  34 0
 6-311+G(2d,p)
 ****
 1  2  14  15  16  17  18  19  20  21  22  24  25  26  27 0
 3-21G
 ****
 35  36  37  38  39  40  41  42  43  44  45 0
 3-21G
 ****


