%nproc=1
%NoSave
%Mem=1900MB
#P OB98/GEN NMR

erre ene a

0 1
  C      316.559     867.554     384.608
  O      317.717     867.129     385.294
  H      316.547     868.648     384.593
  H      315.669     867.201     385.139
  H      316.547     867.186     383.579
  P      318.229     865.628     385.082
  C      318.042     864.552     387.422
  O      318.906     865.130     386.447
  C      318.794     864.177     388.700
  O      319.864     863.260     388.380
  C      319.440     865.392     389.377
  O      318.592     866.089     390.272
  C      320.612     864.753     390.116
  O      320.220     864.305     391.426
  C      320.983     863.552     389.230
  N      325.995     864.560     389.164
  C      325.120     864.575     390.231
  N      325.648     864.949     391.419
  N      323.854     864.282     390.134
  C      323.449     864.025     388.867
  C      324.222     863.995     387.719
  C      325.639     864.253     387.858
  O      326.457     864.233     386.937
  N      323.461     863.741     386.612
  C      322.221     863.708     387.064
  N      322.174     863.791     388.443
  O      319.497     865.801     384.109
  O      317.229     864.685     384.477
  H      319.851     865.063     391.910
  H      319.582     865.014     383.534
  H      326.966     864.771     389.303
  H      321.333     863.575     386.460
  H      321.169     862.655     389.830
  H      321.418     865.467     390.258
  H      326.600     865.280     391.539
  H      319.847     866.086     388.630
  H      325.008     865.163     392.191
  H      318.113     863.651     389.378
  H      317.613     863.660     386.963
  H      317.218     865.236     387.651
  P      317.945     867.495     389.878
  C      317.916     868.331     392.373
  O      317.220     868.093     391.162
  O      316.738     867.086     388.921
  O      318.878     868.458     389.215
  H      316.981     867.179     387.987
  H      317.241     868.732     393.100
  H      318.708     869.029     392.198
  H      318.325     867.411     392.736

 6  7  8  9  10  11  12  13  14  15  26  29  33  34 0
 6-311+G(2d,p)
 ****
 36  38  39  40  41 0
 6-311+G(2d,p)
 ****
 1  2  3  4  5  16  17  18  19  20  21  22  23  24  25 0
 3-21G
 ****
 27  28  30  31  32  35  37  42  43  44  45  46  47 0
 3-21G
 ****
 48  49 0
 3-21G
 ****


