%nproc=1
%NoSave
%Mem=1900MB
#P OB98/GEN NMR

erre ene a

0 1
  C      323.607      52.889     635.084
  O      324.019      51.566     635.375
  H      323.303      53.386     636.008
  H      324.448      53.435     634.651
  H      322.779      52.888     634.370
  P      322.878      50.498     635.734
  C      322.040      49.708     633.407
  O      322.861      49.431     634.531
  C      322.161      48.600     632.356
  O      323.464      48.713     631.722
  C      322.041      47.181     632.931
  O      321.316      46.376     631.995
  C      323.488      46.697     632.974
  O      323.596      45.278     632.913
  C      324.077      47.415     631.758
  N      328.443      45.415     630.068
  C      327.178      45.333     629.615
  N      326.073      45.942     630.094
  C      326.387      46.755     631.122
  C      327.638      46.949     631.689
  C      328.695      46.221     631.133
  N      329.981      46.247     631.641
  N      327.538      47.825     632.761
  C      326.259      48.131     632.843
  N      325.524      47.507     631.873
  O      321.535      51.341     635.507
  O      322.951      49.916     637.107
  H      323.196      44.895     633.716
  H      321.303      51.814     636.326
  H      327.031      44.680     628.759
  H      325.809      48.764     633.598
  H      323.849      46.897     630.812
  H      323.957      47.039     633.898
  H      321.559      47.131     633.912
  H      321.413      48.771     631.576
  H      322.359      50.662     632.959
  H      330.648      45.610     631.244
  H      330.160      46.755     632.488
  H      320.996      49.808     633.733
  P      320.015      45.605     632.535
  C      318.652      45.308     630.330
  O      319.432      44.693     631.350
  O      318.935      46.771     632.672
  O      320.233      44.888     633.832
  H      318.330      46.586     633.422
  H      318.343      44.568     629.622
  H      319.238      46.053     629.834
  H      317.789      45.765     630.768

 6  7  8  9  10  11  12  13  14  15  25  28  32  33  34  35 0
 6-311+G(2d,p)
 ****
 36  39  40 0
 6-311+G(2d,p)
 ****
 1  2  3  4  5  16  17  18  19  20  21  22  23  24 0
 3-21G
 ****
 26  27  29  30  31  37  38  41  42  43  44  45  46  47 0
 3-21G
 ****
 48 0
 3-21G
 ****


