%nproc=1
%NoSave
%Mem=1900MB
#P OB98/GEN NMR

erre ene a

0 1
  C      -15.732     -26.146     -54.186
  O      -15.637     -26.395     -52.787
  P      -16.579     -25.536     -51.813
  C      -17.050     -27.534     -50.179
  O      -16.550     -26.222     -50.367
  C      -17.108     -27.898     -48.685
  O      -15.748     -27.978     -48.181
  C      -17.810     -26.879     -47.792
  O      -18.160     -27.516     -46.556
  C      -16.705     -25.871     -47.543
  O      -16.987     -25.049     -46.413
  C      -15.454     -26.773     -47.422
  N      -14.218     -26.141     -47.930
  C      -12.995     -26.727     -47.608
  O      -12.875     -27.743     -46.921
  N      -11.877     -26.083     -48.072
  C      -11.864     -24.958     -48.844
  O      -10.832     -24.372     -49.160
  C      -13.180     -24.463     -49.272
  C      -14.276     -25.058     -48.794
  O      -18.054     -25.838     -52.365
  O      -16.271     -24.076     -51.810
  H      -17.922     -24.745     -46.518
  H      -18.393     -25.064     -52.856
  H      -10.981     -26.457     -47.788
  H      -13.208     -23.613     -49.941
  H      -15.259     -24.692     -49.086
  H      -15.272     -27.054     -46.379
  H      -16.607     -25.212     -48.411
  H      -18.696     -26.417     -48.235
  H      -17.560     -28.887     -48.573
  H      -16.430     -28.250     -50.726
  H      -18.058     -27.607     -50.610
  P      -19.570     -28.270     -46.470
  C      -18.697     -30.426     -45.374
  O      -19.475     -29.255     -45.208
  O      -20.059     -28.887     -47.740
  O      -20.563     -27.121     -45.944
  H      -21.483     -27.373     -46.136
  H      -18.285     -30.715     -44.403
  H      -17.870     -30.263     -46.075
  H      -19.333     -31.233     -45.748
  H      -15.052     -26.786     -54.709
  H      -15.484     -25.124     -54.384
  H      -16.731     -26.341     -54.516

 3  4  5  6  7  8  9  10  11  12  13  23  28  29  30  31  32 0
 6-311+G(2d,p)
 ****
 33  34 0
 6-311+G(2d,p)
 ****
 1  2  14  15  16  17  18  19  20  21  22  24  25  26  27 0
 3-21G
 ****
 35  36  37  38  39  40  41  42  43  44  45 0
 3-21G
 ****


