%nproc=1
%NoSave
%Mem=1900MB
#P OB98/GEN NMR

erre ene a

0 1
  C     -140.393      39.516     213.674
  O     -141.239      40.545     214.137
  H     -139.790      39.909     212.849
  H     -140.978      38.672     213.304
  H     -139.721      39.188     214.473
  P     -142.370      40.195     215.224
  C     -143.686      38.733     213.572
  O     -142.934      38.748     214.780
  C     -144.769      37.655     213.597
  O     -145.663      37.831     212.463
  C     -144.222      36.220     213.541
  O     -144.879      35.418     214.528
  C     -144.608      35.745     212.142
  O     -144.696      34.327     212.060
  C     -145.914      36.520     211.919
  N     -146.301      36.590     210.508
  C     -146.924      35.453     209.981
  O     -147.083      34.448     210.681
  N     -147.309      35.462     208.664
  C     -147.051      36.498     207.923
  N     -147.445      36.443     206.625
  C     -146.355      37.697     208.431
  C     -146.020      37.679     209.720
  O     -143.417      41.248     215.401
  O     -141.557      39.868     216.559
  H     -144.772      34.074     211.115
  H     -142.160      39.953     217.341
  H     -146.152      38.534     207.774
  H     -145.514      38.527     210.183
  H     -146.739      36.063     212.477
  H     -143.847      36.082     211.419
  H     -143.152      36.164     213.695
  H     -145.388      37.809     214.499
  H     -147.921      35.601     206.313
  H     -143.001      38.560     212.733
  H     -147.297      37.184     205.955
  H     -144.163      39.718     213.452
  P     -143.934      34.806     215.677
  C     -143.554      32.467     214.619
  O     -142.972      33.707     214.991
  O     -144.946      33.932     216.557
  O     -143.234      35.843     216.497
  H     -145.194      34.423     217.368
  H     -142.807      31.840     214.180
  H     -144.337      32.639     213.910
  H     -143.957      31.988     215.487

 6  7  8  9  10  11  12  13  14  15  16  26  30  31  32  33  35 0
 6-311+G(2d,p)
 ****
 37  38 0
 6-311+G(2d,p)
 ****
 1  2  3  4  5  17  18  19  20  21  22  23  24  25 0
 3-21G
 ****
 27  28  29  34  36  39  40  41  42  43  44  45  46 0
 3-21G
 ****


