%nproc=1
%NoSave
%Mem=1900MB
#P OB98/GEN NMR

erre ene a

0 1
  C      -30.750     -54.806    -229.968
  O      -30.634     -53.409    -229.813
  H      -29.804     -55.271    -229.679
  H      -30.958     -55.053    -231.012
  H      -31.545     -55.196    -229.327
  P      -31.929     -52.523    -230.161
  C      -30.961     -51.060    -232.084
  O      -31.341     -51.131    -230.716
  C      -31.024     -49.613    -232.580
  O      -32.294     -49.034    -232.197
  C      -29.915     -48.728    -232.008
  O      -29.390     -47.898    -233.046
  C      -30.615     -47.892    -230.953
  O      -29.958     -46.646    -230.726
  C      -32.038     -47.793    -231.515
  N      -33.022     -47.551    -230.463
  C      -33.127     -46.241    -229.987
  O      -32.401     -45.356    -230.443
  N      -34.010     -45.973    -228.973
  C      -34.687     -46.940    -228.436
  N      -35.528     -46.614    -227.420
  C      -34.573     -48.344    -228.873
  C      -33.736     -48.575    -229.884
  O      -32.499     -52.141    -228.717
  O      -32.927     -53.177    -231.056
  H      -30.423     -46.189    -229.991
  H      -33.414     -51.775    -228.776
  H      -35.145     -49.118    -228.384
  H      -33.587     -49.577    -230.270
  H      -32.107     -46.981    -232.253
  H      -30.627     -48.441    -230.003
  H      -29.099     -49.300    -231.570
  H      -31.001     -49.621    -233.676
  H      -35.572     -45.642    -227.139
  H      -31.641     -51.680    -232.674
  H      -36.080     -47.289    -226.910
  H      -29.941     -51.440    -232.194
  P      -27.993     -48.370    -233.683
  C      -27.206     -45.976    -234.289
  O      -27.560     -47.265    -234.765
  O      -28.398     -49.638    -234.569
  O      -26.951     -48.694    -232.666
  H      -28.197     -50.465    -234.092
  H      -26.942     -45.350    -235.116
  H      -26.372     -46.058    -233.624
  H      -28.037     -45.547    -233.768

 6  7  8  9  10  11  12  13  14  15  16  26  30  31  32  33  35 0
 6-311+G(2d,p)
 ****
 37  38 0
 6-311+G(2d,p)
 ****
 1  2  3  4  5  17  18  19  20  21  22  23  24  25 0
 3-21G
 ****
 27  28  29  34  36  39  40  41  42  43  44  45  46 0
 3-21G
 ****


