%nproc=1
%NoSave
%Mem=1900MB
#P OB98/GEN NMR

erre ene a

0 1
  C      553.017    -146.228    -430.019
  O      552.155    -145.510    -430.882
  H      553.811    -146.679    -430.618
  H      552.461    -147.024    -429.516
  H      553.464    -145.555    -429.282
  P      551.017    -144.617    -430.182
  C      548.921    -146.190    -430.377
  O      549.963    -145.663    -429.573
  C      548.083    -147.188    -429.580
  O      547.509    -146.505    -428.431
  C      546.932    -147.806    -430.375
  O      546.787    -149.172    -429.979
  C      545.717    -147.006    -429.937
  O      544.500    -147.730    -430.129
  C      546.078    -146.685    -428.475
  N      545.379    -145.498    -427.987
  C      544.517    -145.681    -426.897
  O      544.353    -146.805    -426.415
  N      543.826    -144.598    -426.411
  C      543.930    -143.447    -426.997
  N      543.208    -142.421    -426.483
  C      544.790    -143.219    -428.182
  C      545.483    -144.274    -428.607
  O      550.256    -144.005    -431.451
  O      551.540    -143.596    -429.219
  H      543.786    -147.253    -429.649
  H      550.126    -144.645    -432.169
  H      544.833    -142.247    -428.647
  H      546.146    -144.193    -429.467
  H      545.827    -147.529    -427.827
  H      545.655    -146.082    -430.522
  H      547.079    -147.752    -431.453
  H      548.749    -147.961    -429.178
  H      542.618    -142.618    -425.678
  H      549.335    -146.685    -431.259
  H      543.172    -141.496    -426.892
  H      548.301    -145.354    -430.710
  P      547.351    -150.329    -430.931
  C      545.031    -151.139    -431.707
  O      546.289    -150.620    -432.102
  O      547.865    -151.546    -430.237
  O      548.538    -149.588    -431.722
  H      549.278    -150.225    -431.822
  H      544.419    -151.288    -432.572
  H      544.552    -150.448    -431.046
  H      545.172    -152.073    -431.205

 6  7  8  9  10  11  12  13  14  15  16  26  30  31  32  33  35 0
 6-311+G(2d,p)
 ****
 37  38 0
 6-311+G(2d,p)
 ****
 1  2  3  4  5  17  18  19  20  21  22  23  24  25 0
 3-21G
 ****
 27  28  29  34  36  39  40  41  42  43  44  45  46 0
 3-21G
 ****


