%nproc=1
%NoSave
%Mem=1900MB
#P OB98/GEN NMR

erre ene a

0 1
  C      128.559     -25.509     119.818
  O      129.042     -24.322     119.181
  P      128.192     -23.747     117.948
  C      128.363     -24.091     115.354
  O      128.720     -24.537     116.656
  C      129.617     -23.900     114.503
  O      130.356     -22.732     114.939
  C      130.605     -25.055     114.581
  O      130.151     -26.176     113.841
  C      131.865     -24.394     114.034
  O      131.830     -24.360     112.599
  C      131.745     -22.961     114.597
  N      132.619     -22.721     115.740
  C      133.982     -22.882     115.502
  O      134.439     -23.228     114.412
  N      134.806     -22.648     116.570
  C      134.406     -22.310     117.832
  O      135.193     -22.105     118.748
  C      132.952     -22.206     118.034
  C      132.138     -22.413     116.996
  O      128.810     -22.281     117.800
  O      126.720     -23.792     118.183
  H      129.764     -22.248     117.999
  H      131.879     -25.290     112.298
  H      135.797     -22.747     116.415
  H      132.599     -21.963     119.029
  H      131.061     -22.341     117.125
  H      131.993     -22.228     113.821
  H      132.779     -24.926     114.326
  H      130.762     -25.341     115.628
  H      129.303     -23.741     113.463
  H      127.825     -23.142     115.419
  H      127.687     -24.825     114.902
  P      129.251     -27.252     114.632
  C      129.697     -28.826     116.672
  O      130.226     -27.969     115.684
  O      129.021     -28.359     113.496
  O      127.995     -26.679     115.201
  H      129.830     -28.566     112.998
  H      130.501     -29.468     117.044
  H      128.901     -29.458     116.274
  H      129.310     -28.229     117.502
  H      129.218     -25.778     120.617
  H      128.520     -26.306     119.105
  H      127.579     -25.331     120.208

 3  4  5  6  7  8  9  10  11  12  13  24  28  29  30  31  32 0
 6-311+G(2d,p)
 ****
 33  34 0
 6-311+G(2d,p)
 ****
 1  2  14  15  16  17  18  19  20  21  22  23  25  26  27 0
 3-21G
 ****
 35  36  37  38  39  40  41  42  43  44  45 0
 3-21G
 ****


