%nproc=1
%NoSave
%Mem=1900MB
#P OB98/GEN NMR

erre ene a

0 1
  C      475.152     343.040    -433.464
  O      474.373     343.651    -434.473
  H      476.200     343.309    -433.627
  H      475.056     341.956    -433.524
  H      474.849     343.398    -432.475
  P      472.774     343.504    -434.418
  C      472.026     345.957    -434.212
  O      472.165     344.838    -435.076
  C      471.631     347.207    -434.996
  O      472.819     347.771    -435.612
  C      470.617     346.932    -436.113
  O      469.708     348.030    -436.189
  C      471.472     346.885    -437.371
  O      470.732     347.231    -438.546
  C      472.577     347.879    -437.033
  N      475.478     349.514    -440.835
  C      474.334     350.078    -440.272
  N      473.895     351.235    -440.818
  N      473.697     349.545    -439.263
  C      474.258     348.399    -438.806
  C      475.376     347.750    -439.275
  C      476.073     348.332    -440.406
  O      477.069     347.880    -440.969
  N      475.616     346.597    -438.578
  C      474.644     346.556    -437.671
  N      473.791     347.617    -437.790
  O      472.210     343.164    -433.070
  O      472.446     342.378    -435.505
  H      470.002     346.576    -438.629
  H      472.299     341.515    -435.071
  H      475.929     349.964    -441.616
  H      474.512     345.772    -436.934
  H      472.283     348.924    -437.247
  H      471.878     345.876    -437.503
  H      474.348     351.696    -441.589
  H      470.058     345.997    -435.964
  H      473.078     351.667    -440.411
  H      471.243     347.945    -434.296
  H      472.990     346.127    -433.710
  H      471.267     345.738    -433.444
  P      468.419     347.903    -437.134
  C      466.704     348.090    -435.218
  O      467.197     348.663    -436.423
  O      468.100     346.527    -437.627
  O      468.773     348.893    -438.352
  H      468.346     348.560    -439.162
  H      465.897     348.685    -434.845
  H      467.489     348.058    -434.491
  H      466.356     347.097    -435.412

 6  7  8  9  10  11  12  13  14  15  26  29  33  34 0
 6-311+G(2d,p)
 ****
 36  38  39  40  41 0
 6-311+G(2d,p)
 ****
 1  2  3  4  5  16  17  18  19  20  21  22  23  24  25 0
 3-21G
 ****
 27  28  30  31  32  35  37  42  43  44  45  46  47 0
 3-21G
 ****
 48  49 0
 3-21G
 ****


