%nproc=1
%NoSave
%Mem=1900MB
#P OB98/GEN NMR

erre ene a

0 1
  C      200.381    -478.737     414.499
  O      199.342    -478.024     415.140
  H      200.504    -478.344     413.488
  H      200.116    -479.796     414.434
  H      201.321    -478.621     415.043
  P      199.087    -478.328     416.696
  C      198.724    -476.721     418.707
  O      198.476    -476.984     417.333
  C      198.235    -475.319     419.077
  O      199.016    -474.343     418.339
  C      196.758    -475.082     418.755
  O      196.189    -474.284     419.799
  C      196.794    -474.278     417.465
  O      195.629    -473.475     417.283
  C      198.101    -473.488     417.635
  N      198.639    -473.067     416.342
  C      199.095    -471.744     416.252
  O      199.033    -470.999     417.233
  N      199.569    -471.289     415.050
  C      199.501    -472.048     414.000
  N      199.953    -471.530     412.830
  C      198.960    -473.425     414.032
  C      198.558    -473.865     415.224
  O      200.563    -478.382     417.312
  O      198.303    -479.563     416.988
  H      194.869    -474.069     417.108
  H      200.614    -479.008     418.058
  H      198.901    -474.012     413.128
  H      198.141    -474.861     415.344
  H      197.929    -472.593     418.256
  H      196.870    -474.959     416.614
  H      196.183    -476.005     418.648
  H      198.438    -475.153     420.145
  H      200.299    -470.577     412.839
  H      199.802    -476.781     418.889
  H      199.909    -472.014     411.938
  H      198.216    -477.479     419.318
  P      195.112    -474.997     420.745
  C      194.254    -474.433     423.135
  O      194.635    -473.942     421.859
  O      195.984    -476.052     421.572
  O      193.998    -475.662     419.995
  H      195.790    -476.960     421.263
  H      193.964    -473.614     423.760
  H      195.080    -474.947     423.580
  H      193.431    -475.108     423.026

 6  7  8  9  10  11  12  13  14  15  16  26  30  31  32  33  35 0
 6-311+G(2d,p)
 ****
 37  38 0
 6-311+G(2d,p)
 ****
 1  2  3  4  5  17  18  19  20  21  22  23  24  25 0
 3-21G
 ****
 27  28  29  34  36  39  40  41  42  43  44  45  46 0
 3-21G
 ****


