%nproc=1
%NoSave
%Mem=1900MB
#P OB98/GEN NMR

erre ene a

0 1
  C     -542.931    -595.801     362.801
  O     -543.813    -596.269     361.800
  P     -543.234    -596.656     360.355
  C     -544.001    -594.605     358.939
  O     -544.202    -595.962     359.270
  C     -545.232    -594.017     358.226
  O     -545.495    -594.829     357.053
  C     -546.518    -594.048     359.046
  O     -547.445    -593.126     358.468
  C     -547.004    -595.466     358.825
  O     -548.389    -595.612     359.100
  C     -546.587    -595.730     357.355
  N     -546.163    -597.123     357.157
  C     -547.169    -598.086     357.069
  O     -548.367    -597.797     357.077
  N     -546.751    -599.390     357.056
  C     -545.460    -599.811     357.176
  O     -545.141    -600.959     357.479
  C     -544.439    -598.765     357.021
  C     -544.824    -597.486     357.046
  O     -543.598    -598.210     360.240
  O     -541.785    -596.402     360.163
  H     -548.568    -596.588     359.130
  H     -542.827    -598.753     360.487
  H     -547.491    -600.086     357.138
  H     -543.401    -599.070     356.963
  H     -544.087    -596.692     356.985
  H     -547.405    -595.528     356.660
  H     -546.460    -596.142     359.491
  H     -546.378    -593.824     360.109
  H     -545.009    -593.002     357.896
  H     -543.111    -594.513     358.307
  H     -543.799    -594.018     359.845
  P     -547.050    -591.568     358.429
  C     -549.058    -590.589     359.694
  O     -548.425    -590.748     358.439
  O     -546.060    -591.172     357.383
  O     -546.476    -591.315     359.908
  H     -545.941    -590.499     359.922
  H     -549.624    -589.653     359.687
  H     -548.322    -590.546     360.512
  H     -549.751    -591.418     359.866
  H     -543.483    -595.592     363.694
  H     -542.449    -594.908     362.462
  H     -542.193    -596.549     363.005

 3  4  5  6  7  8  9  10  11  12  13  23  28  29  30  31  32 0
 6-311+G(2d,p)
 ****
 33  34 0
 6-311+G(2d,p)
 ****
 1  2  14  15  16  17  18  19  20  21  22  24  25  26  27 0
 3-21G
 ****
 35  36  37  38  39  40  41  42  43  44  45 0
 3-21G
 ****


