%nproc=1
%NoSave
%Mem=1900MB
#P OB98/GEN NMR

erre ene a

0 1
  C      -61.588      18.081     395.301
  O      -61.843      18.452     396.641
  H      -61.099      17.102     395.298
  H      -60.921      18.806     394.826
  H      -62.524      18.008     394.738
  P      -62.499      19.886     396.935
  C      -60.397      20.539     398.284
  O      -61.816      20.441     398.278
  C      -59.809      19.644     399.387
  O      -59.762      18.286     398.869
  C      -58.383      20.061     399.786
  O      -58.231      20.256     401.193
  C      -57.510      19.001     399.125
  O      -56.263      18.786     399.756
  C      -58.428      17.775     399.074
  N      -58.076      16.813     398.026
  C      -57.025      15.937     398.283
  O      -56.382      15.901     399.332
  N      -56.722      15.072     397.267
  C      -57.343      14.992     396.059
  O      -57.032      14.189     395.185
  C      -58.433      15.960     395.838
  C      -58.750      16.811     396.814
  O      -63.991      19.930     396.925
  O      -61.875      20.829     395.804
  H      -55.919      17.925     399.441
  H      -62.537      20.979     395.099
  H      -55.970      14.426     397.449
  H      -58.946      15.931     394.882
  H      -59.546      17.538     396.683
  H      -58.410      17.243     400.030
  H      -57.295      19.322     398.097
  H      -58.130      21.039     399.366
  H      -60.487      19.647     400.248
  H      -60.130      21.585     398.470
  H      -60.000      20.234     397.309
  P      -58.029      21.674     401.896
  C      -56.237      20.732     403.566
  O      -57.458      21.427     403.371
  O      -59.163      22.634     401.758
  O      -56.765      22.301     401.111
  H      -56.901      23.272     401.080
  H      -56.026      20.669     404.613
  H      -55.445      21.257     403.073
  H      -56.319      19.746     403.159

 6  7  8  9  10  11  12  13  14  15  16  26  31  32  33  34  35 0
 6-311+G(2d,p)
 ****
 36  37 0
 6-311+G(2d,p)
 ****
 1  2  3  4  5  17  18  19  20  21  22  23  24  25 0
 3-21G
 ****
 27  28  29  30  38  39  40  41  42  43  44  45 0
 3-21G
 ****


