%nproc=1
%NoSave
%Mem=1900MB
#P OB98/GEN NMR

erre ene a

0 1
  C       63.534       6.388    -766.581
  O       63.866       5.572    -767.687
  P       63.620       6.171    -769.159
  C       63.639       3.869    -770.384
  O       62.902       5.026    -770.023
  C       62.674       2.735    -770.756
  O       61.963       2.274    -769.582
  C       61.600       3.148    -771.757
  O       62.111       3.188    -773.079
  C       60.552       2.066    -771.540
  O       60.863       0.886    -772.285
  C       60.663       1.812    -770.020
  N       59.588       2.419    -769.256
  C       58.369       1.729    -769.267
  O       58.195       0.688    -769.892
  N       57.351       2.303    -768.554
  C       57.400       3.513    -767.914
  O       56.440       4.008    -767.341
  C       58.701       4.211    -767.961
  C       59.719       3.644    -768.626
  O       65.093       6.260    -769.792
  O       62.922       7.490    -769.178
  H       60.870       1.137    -773.230
  H       65.157       7.047    -770.369
  H       56.473       1.820    -768.531
  H       58.776       5.165    -767.445
  H       60.673       4.154    -768.684
  H       60.648       0.719    -769.826
  H       59.554       2.397    -771.857
  H       61.188       4.122    -771.466
  H       63.266       1.889    -771.148
  H       64.269       3.562    -769.541
  H       64.295       4.103    -771.231
  P       61.797       4.510    -773.942
  C       62.320       3.390    -776.247
  O       61.355       3.970    -775.382
  O       63.283       5.084    -774.144
  O       60.863       5.441    -773.258
  H       63.950       4.372    -774.207
  H       63.068       2.815    -775.696
  H       62.809       4.164    -776.829
  H       61.799       2.714    -776.937
  H       63.749       5.863    -765.673
  H       62.492       6.629    -766.615
  H       64.110       7.289    -766.617

 3  4  5  6  7  8  9  10  11  12  13  23  28  29  30  31  32 0
 6-311+G(2d,p)
 ****
 33  34 0
 6-311+G(2d,p)
 ****
 1  2  14  15  16  17  18  19  20  21  22  24  25  26 0
 3-21G
 ****
 27  35  36  37  38  39  40  41  42  43  44  45 0
 3-21G
 ****


