%nproc=1
%NoSave
%Mem=1900MB
#P OB98/GEN NMR

erre ene a

0 1
  C       51.077     537.120     202.772
  O       52.295     537.414     203.442
  P       52.196     538.214     204.838
  C       51.832     540.587     203.841
  O       52.696     539.713     204.554
  C       52.275     542.046     203.999
  O       51.572     542.861     203.017
  C       51.983     542.649     205.385
  O       53.055     543.561     205.673
  C       50.673     543.391     205.135
  O       50.362     544.358     206.127
  C       50.932     543.935     203.742
  N       48.105     547.965     202.337
  C       49.314     547.874     202.943
  N       50.014     546.763     203.280
  C       49.340     545.653     202.911
  C       48.089     545.585     202.303
  C       47.470     546.810     202.009
  N       46.231     546.896     201.404
  N       47.722     544.274     202.106
  C       48.717     543.564     202.591
  N       49.725     544.348     203.065
  O       53.389     537.584     205.697
  O       50.878     538.103     205.543
  H       49.458     544.691     205.995
  H       53.139     537.478     206.630
  H       49.782     548.827     203.191
  H       48.752     542.480     202.631
  H       51.630     544.789     203.747
  H       49.849     542.673     205.128
  H       51.922     541.902     206.184
  H       53.341     542.112     203.777
  H       50.820     540.489     204.236
  H       45.786     547.800     201.420
  H       45.679     546.044     201.354
  H       51.810     540.294     202.787
  P       53.923     543.344     206.994
  C       52.626     544.626     208.807
  O       53.675     544.687     207.855
  O       55.403     543.593     206.431
  O       53.737     542.032     207.702
  H       55.462     544.425     205.934
  H       52.630     545.560     209.373
  H       52.772     543.791     209.490
  H       51.661     544.536     208.294
  H       51.287     536.591     201.866
  H       50.567     538.032     202.542
  H       50.459     536.516     203.403

 3  4  5  6  7  8  9  10  11  12  22  25  29  30  31  32 0
 6-311+G(2d,p)
 ****
 33  36  37 0
 6-311+G(2d,p)
 ****
 1  2  13  14  15  16  17  18  19  20  21  23  24  26 0
 3-21G
 ****
 27  28  34  35  38  39  40  41  42  43  44  45  46  47  48 0
 3-21G
 ****


