%nproc=1
%NoSave
%Mem=1900MB
#P OB98/GEN NMR

erre ene a

0 1
  C     -126.679     101.631      22.627
  O     -126.911     102.932      23.137
  P     -126.187     103.429      24.473
  C     -124.360     104.628      23.134
  O     -124.632     103.648      24.128
  C     -123.786     105.900      23.753
  O     -122.600     105.563      24.526
  C     -123.376     106.979      22.737
  O     -123.627     108.245      23.354
  C     -121.875     106.767      22.611
  O     -121.193     107.908      22.106
  C     -121.528     106.406      24.053
  N     -116.643     106.772      25.522
  C     -117.643     107.680      25.491
  N     -118.911     107.512      25.061
  C     -119.105     106.252      24.634
  C     -118.174     105.228      24.578
  C     -116.887     105.522      25.066
  N     -115.866     104.598      25.139
  N     -118.740     104.094      24.018
  C     -119.985     104.433      23.749
  N     -120.266     105.703      24.162
  O     -126.446     102.596      25.685
  O     -126.727     104.923      24.672
  H     -120.268     107.658      21.920
  H     -127.375     104.946      25.406
  H     -117.394     108.671      25.865
  H     -120.714     103.802      23.259
  H     -121.483     107.290      24.700
  H     -121.678     105.928      21.933
  H     -123.892     106.906      21.776
  H     -124.525     106.303      24.459
  H     -125.301     104.864      22.627
  H     -115.031     104.877      25.628
  H     -116.091     103.607      25.058
  H     -123.663     104.220      22.394
  P     -123.871     109.545      22.442
  C     -126.354     109.020      22.095
  O     -125.094     109.195      21.472
  O     -122.654     110.092      21.773
  O     -124.513     110.602      23.466
  H     -124.441     111.501      23.092
  H     -126.412     108.012      22.519
  H     -127.144     109.139      21.349
  H     -126.504     109.755      22.890
  H     -127.251     101.491      21.734
  H     -126.972     100.905      23.356
  H     -125.639     101.515      22.406

 3  4  5  6  7  8  9  10  11  12  22  25  29  30  31  32 0
 6-311+G(2d,p)
 ****
 33  36  37 0
 6-311+G(2d,p)
 ****
 1  2  13  14  15  16  17  18  19  20  21  23  24  26 0
 3-21G
 ****
 27  28  34  35  38  39  40  41  42  43  44  45  46  47  48 0
 3-21G
 ****


