%nproc=1
%NoSave
%Mem=1900MB
#P OB98/GEN NMR

erre ene a

0 1
  C      466.984    -410.205      25.857
  O      466.646    -410.683      24.575
  P      465.176    -411.121      24.151
  C      464.813    -408.996      22.673
  O      464.349    -409.810      23.742
  C      463.787    -407.912      22.322
  O      462.597    -408.555      21.799
  C      463.355    -407.116      23.567
  O      463.233    -405.718      23.347
  C      462.110    -407.862      24.029
  O      461.270    -407.092      24.875
  C      461.499    -408.302      22.702
  N      456.960    -410.339      21.674
  C      457.508    -409.159      21.211
  N      456.667    -408.337      20.546
  N      458.748    -408.807      21.423
  C      459.433    -409.676      22.204
  C      458.997    -410.876      22.717
  C      457.636    -411.269      22.446
  O      457.074    -412.250      22.927
  N      459.942    -411.461      23.519
  C      460.939    -410.598      23.525
  N      460.660    -409.482      22.765
  O      464.502    -412.135      25.018
  O      465.446    -411.811      22.714
  H      461.819    -406.762      25.611
  H      464.803    -412.542      22.623
  H      455.970    -410.519      21.542
  H      461.861    -410.712      24.076
  H      460.882    -407.515      22.266
  H      462.442    -408.728      24.612
  H      455.676    -408.514      20.492
  H      464.118    -407.185      24.347
  H      456.968    -407.373      20.419
  H      464.194    -407.269      21.533
  H      464.960    -409.668      21.819
  H      465.781    -408.550      22.919
  P      463.041    -404.550      24.418
  C      465.391    -403.516      24.426
  O      464.448    -404.289      25.141
  O      462.160    -405.197      25.583
  O      462.381    -403.320      23.889
  H      461.513    -404.539      25.907
  H      466.373    -403.644      24.891
  H      465.110    -402.461      24.470
  H      465.444    -403.840      23.380
  H      468.029    -409.979      25.889
  H      466.758    -410.953      26.588
  H      466.421    -409.320      26.067

 3  4  5  6  7  8  9  10  11  12  23  26  30  31 0
 6-311+G(2d,p)
 ****
 33  35  36  37  38 0
 6-311+G(2d,p)
 ****
 1  2  13  14  15  16  17  18  19  20  21  22  24  25 0
 3-21G
 ****
 27  28  29  32  34  39  40  41  42  43  44  45  46  47  48  49 0
 3-21G
 ****


