%nproc=1
%NoSave
%Mem=1900MB
#P OB98/GEN NMR

erre ene a

0 1
  C      -71.061    -175.306     164.681
  O      -70.449    -174.837     165.866
  H      -72.053    -175.686     164.925
  H      -70.465    -176.124     164.262
  H      -71.159    -174.502     163.947
  P      -69.116    -173.956     165.701
  C      -67.331    -175.775     166.188
  O      -67.952    -174.952     165.210
  C      -66.083    -176.441     165.603
  O      -65.133    -175.405     165.228
  C      -65.371    -177.383     166.582
  O      -64.889    -178.523     165.858
  C      -64.197    -176.561     167.085
  O      -63.111    -177.373     167.537
  C      -63.879    -175.717     165.859
  N      -59.545    -173.204     165.277
  C      -59.983    -174.380     164.687
  N      -59.139    -174.975     163.818
  N      -61.149    -174.914     164.930
  C      -61.902    -174.190     165.794
  C      -61.587    -173.024     166.442
  C      -60.278    -172.451     166.187
  O      -59.820    -171.431     166.692
  N      -62.607    -172.612     167.264
  C      -63.540    -173.535     167.111
  N      -63.165    -174.506     166.218
  O      -68.712    -173.626     167.216
  O      -69.268    -172.712     164.893
  H      -62.805    -177.906     166.773
  H      -68.775    -172.663     167.368
  H      -58.628    -172.842     165.059
  H      -64.494    -173.543     167.618
  H      -63.251    -176.256     165.132
  H      -64.521    -175.930     167.920
  H      -58.250    -174.593     163.546
  H      -66.014    -177.723     167.398
  H      -59.454    -175.814     163.347
  H      -66.362    -176.967     164.690
  H      -68.041    -176.543     166.510
  H      -67.054    -175.160     167.053
  P      -65.870    -179.790     165.758
  C      -65.462    -180.940     168.048
  O      -66.353    -180.175     167.244
  O      -64.877    -180.987     165.365
  O      -66.964    -179.632     164.752
  H      -65.020    -181.242     164.432
  H      -65.909    -181.121     169.003
  H      -64.547    -180.400     168.179
  H      -65.259    -181.874     167.566

 6  7  8  9  10  11  12  13  14  15  26  29  33  34 0
 6-311+G(2d,p)
 ****
 36  38  39  40  41 0
 6-311+G(2d,p)
 ****
 1  2  3  4  5  16  17  18  19  20  21  22  23  24  25 0
 3-21G
 ****
 27  28  30  31  32  35  37  42  43  44  45  46  47 0
 3-21G
 ****
 48  49 0
 3-21G
 ****


