%nproc=1
%NoSave
%Mem=1900MB
#P OB98/GEN NMR

erre ene a

0 1
  C      -63.068      19.434    -124.312
  O      -63.656      18.149    -124.290
  P      -65.174      17.963    -123.817
  C      -65.533      17.093    -121.426
  O      -65.244      18.226    -122.237
  C      -64.245      16.369    -121.042
  O      -63.376      17.236    -120.277
  C      -64.459      15.148    -120.160
  O      -65.003      14.060    -120.882
  C      -63.050      14.926    -119.625
  O      -62.242      14.233    -120.586
  C      -62.553      16.377    -119.450
  N      -62.567      16.806    -118.060
  C      -61.490      16.381    -117.275
  O      -60.641      15.622    -117.739
  N      -61.412      16.826    -115.978
  C      -62.382      17.522    -115.475
  N      -62.221      17.984    -114.207
  C      -63.612      17.852    -116.225
  C      -63.626      17.486    -117.506
  O      -65.834      16.704    -124.271
  O      -65.927      19.244    -124.419
  H      -66.727      18.944    -124.893
  H      -62.765      13.464    -120.886
  H      -64.420      18.376    -115.739
  H      -64.479      17.706    -118.139
  H      -61.533      16.477    -119.840
  H      -63.043      14.331    -118.706
  H      -65.127      15.406    -119.330
  H      -63.724      16.088    -121.967
  H      -61.357      17.753    -113.731
  H      -66.182      16.416    -121.989
  H      -62.741      18.780    -113.846
  H      -66.073      17.419    -120.531
  P      -65.792      12.949    -120.034
  C      -64.724      10.594    -120.163
  O      -64.719      11.866    -119.547
  O      -66.642      12.171    -121.147
  O      -66.676      13.497    -118.962
  H      -67.507      11.914    -120.779
  H      -63.758      10.116    -119.988
  H      -64.890      10.671    -121.241
  H      -65.508       9.976    -119.717
  H      -62.057      19.358    -124.654
  H      -63.081      19.849    -123.326
  H      -63.621      20.068    -124.973

 3  4  5  6  7  8  9  10  11  12  13  24  27  28  29  30  32 0
 6-311+G(2d,p)
 ****
 34  35 0
 6-311+G(2d,p)
 ****
 1  2  14  15  16  17  18  19  20  21  22  23  25  26 0
 3-21G
 ****
 31  33  36  37  38  39  40  41  42  43  44  45  46 0
 3-21G
 ****


