%nproc=1
%NoSave
%Mem=1900MB
#P OB98/GEN NMR

erre ene a

0 1
  C     -113.839     110.916     -11.722
  O     -112.605     110.506     -12.274
  H     -114.641     110.642     -12.412
  H     -113.852     112.000     -11.581
  H     -114.008     110.414     -10.766
  P     -111.280     110.908     -11.465
  C     -110.306     112.229     -13.480
  O     -110.131     111.166     -12.553
  C     -109.093     112.307     -14.402
  O     -107.920     112.678     -13.638
  C     -108.736     110.987     -15.072
  O     -109.563     110.697     -16.186
  C     -107.295     111.249     -15.474
  O     -107.211     111.943     -16.727
  C     -106.776     112.122     -14.317
  N     -105.915     111.364     -13.412
  C     -104.682     111.944     -13.126
  O     -104.319     113.024     -13.590
  N     -103.856     111.220     -12.313
  C     -104.115     109.977     -11.812
  O     -103.306     109.358     -11.133
  C     -105.426     109.407     -12.161
  C     -106.252     110.113     -12.937
  O     -110.846     109.533     -10.771
  O     -111.459     112.005     -10.470
  H     -111.044     109.568      -9.817
  H     -107.835     112.694     -16.660
  H     -102.959     111.623     -12.092
  H     -105.664     108.421     -11.782
  H     -107.220     109.709     -13.218
  H     -106.198     112.970     -14.706
  H     -106.746     110.317     -15.585
  H     -108.759     110.171     -14.339
  H     -109.275     113.085     -15.154
  H     -110.403     113.176     -12.941
  H     -111.223     112.056     -14.052
  P     -110.343     109.295     -16.192
  C     -108.570     108.297     -17.860
  O     -109.929     108.571     -17.561
  O     -111.844     109.795     -16.433
  O     -110.133     108.501     -14.949
  H     -111.870     110.641     -16.913
  H     -108.505     107.814     -18.812
  H     -108.161     107.657     -17.106
  H     -108.019     109.214     -17.887

 6  7  8  9  10  11  12  13  14  15  16  27  31  32  33  34  35 0
 6-311+G(2d,p)
 ****
 36  37 0
 6-311+G(2d,p)
 ****
 1  2  3  4  5  17  18  19  20  21  22  23  24  25 0
 3-21G
 ****
 26  28  29  30  38  39  40  41  42  43  44  45 0
 3-21G
 ****


