%nproc=1
%NoSave
%Mem=1900MB
#P OB98/GEN NMR

erre ene a

0 1
  C       17.122    -244.181     -44.363
  O       15.926    -243.439     -44.225
  H       17.354    -244.331     -45.420
  H       17.940    -243.619     -43.901
  H       17.028    -245.146     -43.860
  P       14.593    -244.095     -44.833
  C       13.768    -244.663     -47.231
  O       14.809    -244.129     -46.423
  C       13.788    -243.991     -48.600
  O       13.412    -242.600     -48.480
  C       15.152    -243.994     -49.281
  O       15.430    -245.226     -49.921
  C       14.960    -242.878     -50.293
  O       14.179    -243.357     -51.403
  C       14.158    -241.853     -49.479
  N       15.783    -237.001     -49.567
  C       14.970    -237.695     -50.391
  N       14.590    -238.986     -50.302
  C       15.140    -239.569     -49.225
  C       15.994    -238.992     -48.300
  C       16.311    -237.637     -48.497
  N       17.153    -236.929     -47.666
  N       16.382    -239.916     -47.349
  C       15.745    -241.022     -47.681
  N       14.989    -240.866     -48.811
  O       13.490    -242.950     -44.641
  O       14.179    -245.395     -44.231
  H       14.069    -242.601     -52.012
  H       12.596    -243.339     -44.669
  H       14.573    -237.139     -51.238
  H       15.798    -241.956     -47.135
  H       13.431    -241.306     -50.091
  H       15.901    -242.503     -50.700
  H       15.952    -243.712     -48.583
  H       13.036    -244.485     -49.232
  H       12.805    -244.472     -46.748
  H       17.459    -236.027     -47.997
  H       17.666    -237.435     -46.958
  H       13.909    -245.742     -47.334
  P       16.869    -245.887     -49.655
  C       19.312    -245.178     -50.198
  O       17.923    -244.972     -50.442
  O       16.818    -247.230     -50.520
  O       17.181    -246.147     -48.218
  H       17.416    -247.906     -50.148
  H       19.884    -244.497     -50.793
  H       19.574    -246.183     -50.456
  H       19.521    -245.009     -49.162

 6  7  8  9  10  11  12  13  14  15  25  28  32  33  34  35 0
 6-311+G(2d,p)
 ****
 36  39  40 0
 6-311+G(2d,p)
 ****
 1  2  3  4  5  16  17  18  19  20  21  22  23  24 0
 3-21G
 ****
 26  27  29  30  31  37  38  41  42  43  44  45  46  47 0
 3-21G
 ****
 48 0
 3-21G
 ****


