%nproc=1
%NoSave
%Mem=1900MB
#P OB98/GEN NMR

erre ene a

0 1
  C      502.250     310.917     100.323
  O      500.847     310.820     100.587
  P      500.046     312.208     100.742
  C      499.027     311.526     103.040
  O      498.786     311.928     101.697
  C      497.711     311.280     103.775
  O      496.959     312.499     103.909
  C      496.774     310.310     103.068
  O      497.146     308.960     103.297
  C      495.451     310.628     103.756
  O      495.368     309.924     105.008
  C      495.557     312.142     103.996
  N      492.588     316.191     103.297
  C      493.150     315.695     104.458
  N      492.911     316.395     105.588
  N      493.884     314.613     104.506
  C      494.064     314.037     103.294
  C      493.558     314.428     102.077
  C      492.721     315.609     102.043
  O      492.173     316.072     101.049
  N      493.967     313.592     101.069
  C      494.742     312.713     101.669
  N      494.820     312.930     103.024
  O      499.380     312.400      99.300
  O      500.907     313.365     101.122
  H      494.501     310.147     105.404
  H      499.233     313.348      99.124
  H      492.025     317.023     103.319
  H      495.270     311.907     101.175
  H      495.212     312.422     104.998
  H      494.583     310.323     103.164
  H      492.417     317.273     105.611
  H      496.701     310.545     102.000
  H      493.347     316.068     106.442
  H      497.949     310.909     104.780
  H      499.595     312.300     103.562
  H      499.646     310.627     103.036
  P      497.993     308.231     102.145
  C      495.757     307.527     101.036
  O      497.015     307.120     101.534
  O      499.074     307.388     102.969
  O      498.633     309.158     101.166
  H      499.885     307.269     102.439
  H      495.841     308.444     100.447
  H      495.064     307.685     101.867
  H      495.359     306.735     100.393
  H      502.666     309.935     100.242
  H      502.728     311.442     101.124
  H      502.405     311.447      99.406

 3  4  5  6  7  8  9  10  11  12  23  26  30  31  33  0
 6-311+G(2d,p)
 ****
 35  36  37  38 0
 6-311+G(2d,p)
 ****
 1  2  13  14  15  16  17  18  19  20  21  22  24  25  27  28  29 0
 3-21G
 ****
 32  34  39  40  41  42  43  44  45  46  47  48  49 0
 3-21G
 ****


