%nproc=1
%NoSave
%Mem=1900MB
#P OB98/GEN NMR

erre ene a

0 1
  C     -194.331     -66.257     214.937
  O     -194.861     -67.562     214.812
  H     -193.242     -66.313     214.867
  H     -194.601     -65.829     215.906
  H     -194.704     -65.622     214.129
  P     -196.455     -67.703     214.924
  C     -196.711     -68.095     212.378
  O     -196.998     -67.250     213.484
  C     -197.981     -68.788     211.892
  O     -198.274     -69.928     212.718
  C     -199.225     -67.910     211.918
  O     -199.289     -67.104     210.753
  C     -200.323     -68.963     211.926
  O     -200.543     -69.441     210.585
  C     -199.715     -70.082     212.787
  N     -200.746     -73.003     216.881
  C     -200.537     -73.318     215.585
  N     -200.324     -72.489     214.541
  C     -200.326     -71.207     214.943
  C     -200.527     -70.734     216.231
  C     -200.740     -71.696     217.232
  N     -200.954     -71.371     218.553
  N     -200.466     -69.357     216.264
  C     -200.173     -69.009     215.028
  N     -200.114     -70.089     214.183
  O     -197.083     -67.040     216.103
  O     -196.625     -69.295     214.870
  H     -201.283     -70.076     210.630
  H     -196.017     -69.681     214.215
  H     -200.547     -74.379     215.354
  H     -199.975     -67.996     214.697
  H     -199.957     -71.075     212.391
  H     -201.277     -68.573     212.285
  H     -199.287     -67.319     212.839
  H     -197.792     -69.163     210.876
  H     -195.965     -68.847     212.660
  H     -201.286     -72.103     219.160
  H     -201.077     -70.396     218.785
  H     -196.289     -67.471     211.584
  P     -200.379     -65.935     210.613
  C     -198.965     -63.966     211.469
  O     -200.010     -64.885     211.766
  O     -201.790     -66.406     210.590
  O     -199.960     -65.163     209.277
  H     -200.702     -64.611     208.965
  H     -198.809     -63.320     212.308
  H     -199.236     -63.382     210.614
  H     -198.064     -64.505     211.262

 6  7  8  9  10  11  12  13  14  15  25  28  32  33  34  35 0
 6-311+G(2d,p)
 ****
 36  39  40 0
 6-311+G(2d,p)
 ****
 1  2  3  4  5  16  17  18  19  20  21  22  23  24 0
 3-21G
 ****
 26  27  29  30  31  37  38  41  42  43  44  45  46  47 0
 3-21G
 ****
 48 0
 3-21G
 ****


