%nproc=1
%NoSave
%Mem=1900MB
#P OB98/GEN NMR

erre ene a

0 1
  C      511.272     744.658     -42.138
  O      510.039     743.965     -42.200
  P      509.607     742.953     -41.047
  C      508.326     744.728     -39.588
  O      509.375     743.787     -39.703
  C      507.137     744.070     -38.876
  O      507.543     743.586     -37.577
  C      505.987     745.043     -38.686
  O      505.044     744.928     -39.740
  C      505.425     744.637     -37.336
  O      504.549     743.500     -37.471
  C      506.707     744.234     -36.572
  N      507.514     745.302     -35.944
  C      508.393     744.982     -34.916
  O      508.577     743.845     -34.501
  N      509.059     746.040     -34.345
  C      508.953     747.343     -34.733
  O      509.357     748.297     -34.073
  C      508.229     747.580     -35.986
  C      507.530     746.569     -36.508
  O      510.961     742.147     -40.748
  O      508.468     742.039     -41.377
  H      503.761     743.806     -37.959
  H      510.948     741.284     -41.206
  H      509.594     745.835     -33.507
  H      508.235     748.575     -36.408
  H      506.955     746.725     -37.415
  H      506.495     743.495     -35.792
  H      504.824     745.437     -36.896
  H      506.360     746.070     -38.610
  H      506.810     743.201     -39.466
  H      508.028     745.078     -40.578
  H      508.667     745.602     -39.024
  P      504.588     746.235     -40.541
  C      506.404     745.835     -42.300
  O      505.898     746.731     -41.332
  O      503.891     747.271     -39.735
  O      503.632     745.645     -41.686
  H      502.693     745.723     -41.412
  H      507.173     746.361     -42.886
  H      505.618     745.503     -42.974
  H      506.875     744.978     -41.804
  H      511.374     745.283     -43.000
  H      512.076     743.953     -42.112
  H      511.298     745.262     -41.255

 3  4  5  6  7  8  9  10  11  12  13  23  28  29  30  31  32 0
 6-311+G(2d,p)
 ****
 33  34 0
 6-311+G(2d,p)
 ****
 1  2  14  15  16  17  18  19  20  21  22  24  25  26  27 0
 3-21G
 ****
 35  36  37  38  39  40  41  42  43  44  45 0
 3-21G
 ****


