%nproc=1
%NoSave
%Mem=1900MB
#P OB98/GEN NMR

erre ene a

0 1
  C      450.885     181.707    -225.718
  O      451.773     181.122    -224.761
  P      452.449     181.909    -223.544
  C      453.561     181.054    -221.322
  O      453.348     180.866    -222.715
  C      454.421     179.941    -220.681
  O      453.679     178.685    -220.719
  C      455.700     179.717    -221.495
  O      456.825     180.547    -221.276
  C      455.984     178.220    -221.354
  O      456.887     177.932    -220.291
  C      454.602     177.625    -221.068
  N      451.386     173.964    -222.640
  C      451.644     174.407    -221.361
  N      451.001     173.765    -220.357
  N      452.469     175.386    -221.080
  C      453.111     175.877    -222.165
  C      452.951     175.504    -223.486
  C      451.991     174.465    -223.784
  O      451.722     174.041    -224.909
  N      453.789     176.221    -224.309
  C      454.465     177.001    -223.490
  N      454.085     176.837    -222.174
  O      451.540     182.790    -222.761
  O      453.544     182.843    -224.276
  H      457.800     178.099    -220.614
  H      453.608     183.665    -223.739
  H      450.721     173.227    -222.799
  H      455.232     177.712    -223.790
  H      454.637     176.948    -220.196
  H      456.450     177.840    -222.274
  H      450.447     172.935    -220.492
  H      455.439     179.864    -222.552
  H      451.340     173.942    -219.408
  H      454.605     180.144    -219.626
  H      452.569     181.092    -220.852
  H      454.029     182.024    -221.138
  P      457.367     181.686    -222.266
  C      459.268     183.399    -222.103
  O      458.857     182.071    -221.809
  O      456.520     182.985    -221.858
  O      457.215     181.386    -223.728
  H      456.579     183.663    -222.564
  H      460.363     183.454    -222.024
  H      458.835     184.091    -221.364
  H      458.965     183.694    -223.110
  H      450.579     180.962    -226.423
  H      451.387     182.500    -226.232
  H      450.025     182.097    -225.215

 3  4  5  6  7  8  9  10  11  12  23  26  30  31 0
 6-311+G(2d,p)
 ****
 33  35  36  37  38 0
 6-311+G(2d,p)
 ****
 1  2  13  14  15  16  17  18  19  20  21  22  24  25 0
 3-21G
 ****
 27  28  29  32  34  39  40  41  42  43  44  45  46  47  48  49 0
 3-21G
 ****


