%nproc=1
%NoSave
%Mem=1900MB
#P OB98/GEN NMR

erre ene a

0 1
  C      157.486      36.097     390.094
  O      157.789      37.468     389.947
  H      158.247      35.638     390.729
  H      157.506      35.608     389.118
  H      156.508      35.956     390.560
  P      156.687      38.441     389.307
  C      156.406      39.801     391.481
  O      155.778      38.959     390.523
  C      155.397      40.789     392.082
  O      154.460      40.051     392.919
  C      156.040      41.874     392.965
  O      155.224      43.049     392.855
  C      155.906      41.268     394.347
  O      156.061      42.239     395.356
  C      154.524      40.617     394.241
  N      154.301      39.614     395.279
  C      153.553      40.011     396.379
  O      153.117      41.156     396.519
  N      153.356      39.068     397.351
  C      153.875      37.807     397.351
  O      153.692      37.011     398.264
  C      154.698      37.450     396.184
  C      154.867      38.351     395.212
  O      155.925      37.886     388.150
  O      157.508      39.757     388.903
  H      156.984      42.577     395.365
  H      157.098      40.182     388.127
  H      152.805      39.341     398.149
  H      155.131      36.461     396.158
  H      155.465      38.122     394.337
  H      153.733      41.374     394.324
  H      156.674      40.503     394.508
  H      157.072      42.096     392.691
  H      154.816      41.235     391.269
  H      157.204      40.352     390.974
  H      156.844      39.187     392.275
  P      155.744      44.385     392.129
  C      154.665      44.011     389.815
  O      155.884      44.091     390.557
  O      156.964      44.987     392.748
  O      154.508      45.398     392.209
  H      154.835      46.318     392.209
  H      154.886      43.813     388.787
  H      154.138      44.939     389.894
  H      154.059      43.222     390.208

 6  7  8  9  10  11  12  13  14  15  16  26  31  32  33  34  35 0
 6-311+G(2d,p)
 ****
 36  37 0
 6-311+G(2d,p)
 ****
 1  2  3  4  5  17  18  19  20  21  22  23  24  25 0
 3-21G
 ****
 27  28  29  30  38  39  40  41  42  43  44  45 0
 3-21G
 ****


