%nproc=1
%NoSave
%Mem=1900MB
#P OB98/GEN NMR

erre ene a

0 1
  C       34.817      76.673      40.104
  O       34.877      78.034      40.477
  H       34.264      76.592      39.165
  H       34.298      76.089      40.870
  H       35.826      76.281      39.956
  P       35.603      78.366      41.868
  C       33.295      78.217      43.004
  O       34.634      77.739      42.986
  C       32.671      78.001      44.383
  O       32.520      76.573      44.603
  C       33.517      78.557      45.533
  O       32.650      79.067      46.547
  C       34.234      77.327      46.061
  O       34.658      77.485      47.411
  C       33.173      76.250      45.841
  N       35.296      72.579      48.657
  C       34.644      73.712      48.991
  N       34.086      74.627      48.171
  C       34.204      74.246      46.886
  C       34.839      73.122      46.393
  C       35.416      72.264      47.346
  N       36.114      71.126      47.015
  N       34.789      73.107      45.013
  C       34.123      74.198      44.680
  N       33.768      74.927      45.781
  O       35.973      79.795      42.078
  O       36.827      77.335      41.857
  H       35.257      76.742      47.637
  H       36.538      76.440      41.597
  H       34.566      73.917      50.057
  H       33.891      74.509      43.667
  H       32.420      76.232      46.639
  H       35.123      77.125      45.453
  H       34.214      79.333      45.216
  H       31.663      78.431      44.386
  H       32.698      77.696      42.247
  H       36.493      70.567      47.763
  H       36.210      70.868      46.044
  H       33.314      79.284      42.757
  P       32.484      80.653      46.704
  C       34.487      81.126      48.254
  O       33.932      81.300      46.959
  O       31.420      81.102      47.648
  O       32.158      81.125      45.206
  H       31.453      81.802      45.232
  H       35.446      81.599      48.298
  H       34.595      80.081      48.458
  H       33.839      81.567      48.982

 6  7  8  9  10  11  12  13  14  15  25  28  32  33  34  35 0
 6-311+G(2d,p)
 ****
 36  39  40 0
 6-311+G(2d,p)
 ****
 1  2  3  4  5  16  17  18  19  20  21  22  23  24 0
 3-21G
 ****
 26  27  29  30  31  37  38  41  42  43  44  45  46  47 0
 3-21G
 ****
 48 0
 3-21G
 ****


