%nproc=1
%NoSave
%Mem=1900MB
#P OB98/GEN NMR

erre ene a

0 1
  C       26.079     277.721     275.892
  O       26.626     276.401     275.905
  P       26.482     275.592     277.286
  C       28.558     276.595     278.463
  O       27.144     276.480     278.449
  C       29.105     276.630     279.895
  O       30.555     276.468     279.908
  C       28.790     277.930     280.645
  O       28.590     277.579     282.022
  C       30.089     278.710     280.518
  O       30.173     279.749     281.484
  C       31.095     277.571     280.673
  N       35.815     278.532     282.177
  C       34.671     278.322     282.919
  N       34.814     278.319     284.262
  N       33.489     278.132     282.395
  C       33.506     278.122     281.035
  C       34.576     278.298     280.190
  C       35.872     278.543     280.788
  O       36.919     278.728     280.178
  N       34.195     278.189     278.873
  C       32.887     278.013     278.935
  N       32.430     277.908     280.216
  O       27.501     274.373     277.103
  O       25.089     275.118     277.561
  H       30.405     279.334     282.344
  H       27.016     273.562     276.856
  H       36.699     278.690     282.636
  H       32.233     277.926     278.083
  H       31.198     277.249     281.716
  H       30.160     279.162     279.522
  H       35.701     278.411     284.736
  H       27.929     278.479     280.260
  H       33.999     278.129     284.830
  H       28.681     275.777     280.441
  H       28.863     277.512     277.948
  H       28.993     275.766     277.893
  P       27.087     277.458     282.547
  C       26.431     279.941     282.216
  O       26.233     278.599     281.819
  O       27.190     277.982     284.061
  O       26.512     276.080     282.495
  H       26.607     277.445     284.632
  H       26.179     280.599     281.376
  H       27.468     280.130     282.507
  H       25.777     280.177     283.058
  H       26.232     278.161     274.929
  H       26.565     278.316     276.637
  H       25.031     277.675     276.101

 3  4  5  6  7  8  9  10  11  12  23  26  30  31 0
 6-311+G(2d,p)
 ****
 33  35  36  37  38 0
 6-311+G(2d,p)
 ****
 1  2  13  14  15  16  17  18  19  20  21  22  24  25 0
 3-21G
 ****
 27  28  29  32  34  39  40  41  42  43  44  45  46  47  48  49 0
 3-21G
 ****


