%nproc=1
%NoSave
%Mem=1900MB
#P OB98/GEN NMR

erre ene a

0 1
  C      322.308      71.824     592.937
  O      322.339      71.019     591.775
  P      323.636      71.120     590.833
  C      323.867      68.523     590.818
  O      324.488      69.779     591.053
  C      324.894      67.401     590.988
  O      325.458      67.435     592.319
  C      324.304      66.007     590.830
  O      324.128      65.671     589.460
  C      325.346      65.148     591.536
  O      326.443      64.848     590.661
  C      325.802      66.081     592.677
  N      325.231      65.696     593.968
  C      326.136      65.255     594.928
  O      327.348      65.159     594.711
  N      325.599      64.885     596.135
  C      324.274      64.865     596.446
  O      323.851      64.467     597.526
  C      323.356      65.317     595.382
  C      323.871      65.696     594.212
  O      324.526      72.256     591.531
  O      323.344      71.441     589.406
  H      327.007      65.649     590.629
  H      324.988      72.779     590.847
  H      326.243      64.586     596.844
  H      322.299      65.309     595.601
  H      323.213      66.021     593.410
  H      326.894      66.059     592.768
  H      324.934      64.191     591.874
  H      323.356      65.939     591.375
  H      325.708      67.560     590.268
  H      323.464      68.504     589.802
  H      323.037      68.395     591.523
  P      322.784      64.884     589.075
  C      321.771      67.191     588.381
  O      321.626      65.990     589.107
  O      322.562      64.005     590.395
  O      322.911      64.096     587.815
  H      322.871      64.461     591.199
  H      322.302      67.027     587.435
  H      322.324      67.919     588.985
  H      320.781      67.595     588.165
  H      321.392      71.655     593.464
  H      322.374      72.855     592.658
  H      323.134      71.571     593.568

 3  4  5  6  7  8  9  10  11  12  13  23  28  29  30  31  32 0
 6-311+G(2d,p)
 ****
 33  34 0
 6-311+G(2d,p)
 ****
 1  2  14  15  16  17  18  19  20  21  22  24  25  26 0
 3-21G
 ****
 27  35  36  37  38  39  40  41  42  43  44  45 0
 3-21G
 ****


