%nproc=1
%NoSave
%Mem=1900MB
#P OB98/GEN NMR

erre ene a

0 1
  C      234.651     506.682    -293.253
  O      235.417     506.765    -292.063
  H      233.678     507.153    -293.078
  H      234.489     505.634    -293.504
  H      235.155     507.201    -294.074
  P      236.972     506.419    -292.173
  C      236.810     504.858    -290.111
  O      237.458     505.965    -290.702
  C      236.907     504.939    -288.584
  O      238.313     504.888    -288.197
  C      236.306     506.232    -287.982
  O      235.656     505.913    -286.764
  C      237.531     507.093    -287.711
  O      237.299     508.047    -286.671
  C      238.565     506.033    -287.363
  N      242.441     508.367    -285.112
  C      241.228     507.927    -284.593
  N      241.032     508.144    -283.274
  N      240.304     507.317    -285.306
  C      240.677     507.131    -286.589
  C      241.832     507.524    -287.234
  C      242.829     508.219    -286.435
  O      243.907     508.653    -286.857
  N      241.813     507.178    -288.559
  C      240.637     506.579    -288.733
  N      239.911     506.526    -287.555
  O      237.650     507.856    -292.362
  O      237.346     505.486    -293.282
  H      238.142     508.545    -286.536
  H      238.077     507.905    -293.240
  H      243.104     508.831    -284.532
  H      240.273     506.186    -289.666
  H      238.503     505.708    -286.308
  H      237.817     507.631    -288.622
  H      241.711     508.571    -282.654
  H      235.599     506.723    -288.664
  H      240.168     507.805    -282.862
  H      236.433     504.049    -288.156
  H      237.277     503.937    -290.449
  H      235.749     504.851    -290.417
  P      234.043     505.953    -286.766
  C      233.639     507.594    -284.803
  O      233.548     506.264    -285.257
  O      233.636     504.421    -286.995
  O      233.464     506.837    -287.815
  H      233.279     504.304    -287.886
  H      233.280     507.653    -283.797
  H      233.046     508.226    -285.431
  H      234.660     507.913    -284.837

 6  7  8  9  10  11  12  13  14  15  26  29  33  34 0
 6-311+G(2d,p)
 ****
 36  38  39  40  41 0
 6-311+G(2d,p)
 ****
 1  2  3  4  5  16  17  18  19  20  21  22  23  24  25 0
 3-21G
 ****
 27  28  30  31  32  35  37  42  43  44  45  46  47 0
 3-21G
 ****
 48  49 0
 3-21G
 ****


