%nproc=1
%NoSave
%Mem=1900MB
#P OB98/GEN NMR

erre ene a

0 1
  C     -653.817    -533.321     212.179
  O     -652.505    -532.854     211.903
  P     -652.134    -531.371     212.399
  C     -652.879    -530.317     210.130
  O     -653.063    -530.382     211.549
  C     -652.805    -528.867     209.672
  O     -653.985    -528.153     210.098
  C     -651.635    -528.096     210.248
  O     -650.435    -528.428     209.571
  C     -652.081    -526.651     210.031
  O     -651.721    -526.192     208.715
  C     -653.615    -526.752     210.185
  N     -654.104    -526.146     211.420
  C     -654.928    -525.036     211.270
  O     -655.201    -524.613     210.135
  N     -655.396    -524.407     212.398
  C     -655.062    -524.851     213.567
  N     -655.562    -524.193     214.664
  C     -654.177    -526.017     213.768
  C     -653.724    -526.606     212.663
  O     -650.672    -531.138     211.777
  O     -652.157    -531.178     213.878
  H     -652.300    -525.421     208.539
  H     -650.173    -530.493     212.308
  H     -653.925    -526.344     214.775
  H     -653.069    -527.471     212.723
  H     -654.121    -526.250     209.342
  H     -651.620    -525.968     210.751
  H     -651.523    -528.293     211.324
  H     -652.772    -528.860     208.575
  H     -656.165    -523.400     214.487
  H     -653.731    -530.807     209.644
  H     -655.384    -524.487     215.605
  H     -651.966    -530.861     209.870
  P     -649.050    -528.239     210.362
  C     -648.744    -525.760     209.763
  O     -649.037    -526.692     210.793
  O     -647.981    -528.271     209.166
  O     -648.735    -529.223     211.435
  H     -647.074    -528.263     209.544
  H     -648.916    -524.756     210.152
  H     -649.407    -525.920     208.902
  H     -647.702    -525.855     209.456
  H     -653.930    -534.314     211.798
  H     -654.531    -532.676     211.711
  H     -653.979    -533.324     213.237

 3  4  5  6  7  8  9  10  11  12  13  21  23  27  28  29  30  32 0
 6-311+G(2d,p)
 ****
 34  35 0
 6-311+G(2d,p)
 ****
 1  2  14  15  16  17  18  19  20  22  24  25  26 0
 3-21G
 ****
 31  33  36  37  38  39  40  41  42  43  44  45  46 0
 3-21G
 ****


