%nproc=1
%NoSave
%Mem=1900MB
#P OB98/GEN NMR

erre ene a

0 1
  C     -109.934    -231.541    -596.393
  O     -108.537    -231.681    -596.575
  H     -110.141    -230.613    -595.852
  H     -110.414    -231.488    -597.373
  H     -110.345    -232.394    -595.847
  P     -107.666    -232.080    -595.287
  C     -108.935    -233.001    -593.218
  O     -108.476    -233.249    -594.538
  C     -109.582    -234.253    -592.630
  O     -110.647    -234.686    -593.522
  C     -108.616    -235.437    -592.445
  O     -108.945    -236.112    -591.222
  C     -108.955    -236.350    -593.617
  O     -108.630    -237.710    -593.367
  C     -110.450    -236.090    -593.777
  N     -113.206    -239.488    -596.368
  C     -113.146    -239.198    -595.050
  N     -112.417    -238.229    -594.444
  C     -111.762    -237.490    -595.356
  C     -111.729    -237.660    -596.729
  C     -112.489    -238.739    -597.239
  N     -112.508    -239.083    -598.568
  N     -110.892    -236.730    -597.313
  C     -110.405    -236.027    -596.311
  N     -110.894    -236.452    -595.106
  O     -107.868    -230.807    -594.329
  O     -106.223    -232.360    -595.547
  H     -107.659    -237.798    -593.299
  H     -107.195    -230.134    -594.536
  H     -113.745    -239.823    -594.396
  H     -109.676    -235.237    -596.397
  H     -111.051    -236.658    -593.056
  H     -108.404    -236.016    -594.508
  H     -107.557    -235.149    -592.433
  H     -110.048    -233.990    -591.672
  H     -109.678    -232.194    -593.243
  H     -112.990    -239.932    -598.822
  H     -111.890    -238.604    -599.210
  H     -108.090    -232.678    -592.596
  P     -108.424    -235.455    -589.854
  C     -108.871    -232.914    -589.498
  O     -109.399    -234.236    -589.470
  O     -107.070    -234.724    -590.293
  O     -108.186    -236.448    -588.762
  H     -106.426    -234.734    -589.562
  H     -109.635    -232.219    -589.221
  H     -108.525    -232.689    -590.485
  H     -108.055    -232.841    -588.809

 6  7  8  9  10  11  12  13  14  15  25  28  32  33  34  35 0
 6-311+G(2d,p)
 ****
 36  39  40 0
 6-311+G(2d,p)
 ****
 1  2  3  4  5  16  17  18  19  20  21  22  23  24 0
 3-21G
 ****
 26  27  29  30  31  37  38  41  42  43  44  45  46  47 0
 3-21G
 ****
 48 0
 3-21G
 ****


