%nproc=1
%NoSave
%Mem=1900MB
#P OB98/GEN NMR

erre ene a

0 1
  C      106.433     210.599    -240.559
  O      106.323     212.005    -240.337
  P      107.466     212.745    -239.490
  C      108.936     212.906    -241.601
  O      108.361     213.609    -240.503
  C      110.045     213.731    -242.252
  O      110.825     212.945    -243.174
  C      109.523     214.905    -243.064
  O      109.076     215.950    -242.217
  C      110.734     215.238    -243.922
  O      111.670     216.053    -243.200
  C      111.341     213.842    -244.184
  N      111.081     213.341    -245.525
  C      112.109     213.523    -246.456
  O      113.142     214.110    -246.137
  N      111.931     213.045    -247.733
  C      110.822     212.451    -248.050
  N      110.703     211.994    -249.326
  C      109.710     212.250    -247.100
  C      109.903     212.723    -245.870
  O      108.231     211.880    -238.543
  O      106.644     213.879    -238.703
  H      112.340     216.340    -243.854
  H      107.093     214.060    -237.853
  H      108.809     211.742    -247.411
  H      109.136     212.622    -245.111
  H      112.430     213.868    -244.043
  H      110.453     215.790    -244.825
  H      108.696     214.571    -243.706
  H      110.712     214.097    -241.457
  H      111.476     212.155    -249.962
  H      108.159     212.678    -242.336
  H      109.901     211.475    -249.656
  H      109.318     211.945    -241.241
  P      107.574     216.476    -242.412
  C      105.873     214.915    -241.230
  O      106.731     216.036    -241.126
  O      107.008     215.520    -243.571
  O      107.459     217.915    -242.797
  H      106.379     216.017    -244.126
  H      105.630     214.567    -240.224
  H      106.347     214.099    -241.782
  H      104.948     215.208    -241.735
  H      105.597     210.263    -241.136
  H      106.445     210.089    -239.618
  H      107.339     210.391    -241.089

 3  4  5  6  7  8  9  10  11  12  13  23  27  28  29  30  32 0
 6-311+G(2d,p)
 ****
 34  35 0
 6-311+G(2d,p)
 ****
 1  2  14  15  16  17  18  19  20  21  22  24  25  26 0
 3-21G
 ****
 31  33  36  37  38  39  40  41  42  43  44  45  46 0
 3-21G
 ****


