%nproc=1
%NoSave
%Mem=1900MB
#P OB98/GEN NMR

erre ene a

0 1
  C      994.741    -898.130     825.108
  O      995.345    -897.150     825.941
  P      996.499    -897.610     826.986
  C      998.435    -897.690     825.305
  O      997.896    -897.040     826.470
  C      999.802    -897.080     824.962
  O      999.658    -895.790     824.312
  C     1000.693    -896.860     826.156
  O     1001.228    -898.050     826.672
  C     1001.744    -895.890     825.554
  O     1002.711    -896.640     824.807
  C     1000.868    -895.070     824.576
  N     1000.603    -893.730     825.127
  C     1001.343    -892.680     824.591
  O     1002.238    -892.900     823.745
  N     1001.037    -891.390     824.983
  C     1000.183    -891.190     825.921
  N      999.905    -889.900     826.277
  C      999.503    -892.290     826.654
  C      999.740    -893.520     826.181
  O      996.488    -899.040     827.366
  O      996.191    -896.660     828.269
  H      996.161    -897.230     829.060
  H     1002.936    -897.440     825.371
  H      998.837    -892.080     827.467
  H      999.265    -894.400     826.600
  H     1001.396    -894.960     823.618
  H     1002.280    -895.320     826.310
  H     1000.142    -896.320     826.950
  H     1000.286    -897.760     824.239
  H     1000.390    -889.170     825.754
  H      997.751    -897.530     824.466
  H      999.041    -889.650     826.761
  H      998.525    -898.750     825.487
  P     1001.898    -897.950     828.164
  C      999.968    -899.000     829.544
  O     1001.304    -899.160     829.023
  O     1001.235    -896.660     828.791
  O     1003.381    -897.870     828.136
  H     1001.900    -896.170     829.321
  H      999.586    -900.000     829.811
  H      999.298    -898.560     828.796
  H      999.994    -898.390     830.454
  H      994.007    -897.664     824.484
  H      994.271    -898.875     825.716
  H      995.490    -898.589     824.497

 3  4  5  6  7  8  9  10  11  12  13  24  27  28  29  30  32 0
 6-311+G(2d,p)
 ****
 34  35 0
 6-311+G(2d,p)
 ****
 1  2  14  15  16  17  18  19  20  21  22  23  25  26 0
 3-21G
 ****
 31  33  36  37  38  39  40  41  42  43  44  45  46 0
 3-21G
 ****


