%nproc=1
%NoSave
%Mem=1900MB
#P OB98/GEN NMR

erre ene a

0 1
  C      -78.226      39.753    -141.117
  O      -79.219      38.758    -141.270
  H      -78.312      40.179    -140.114
  H      -78.376      40.552    -141.847
  H      -77.227      39.324    -141.231
  P      -79.252      37.901    -142.625
  C      -77.098      36.697    -143.343
  O      -78.193      36.707    -142.441
  C      -76.352      35.366    -143.268
  O      -75.626      35.308    -142.014
  C      -77.271      34.142    -143.337
  O      -76.614      33.125    -144.093
  C      -77.386      33.706    -141.890
  O      -77.672      32.314    -141.763
  C      -76.020      34.101    -141.333
  N      -75.376      31.889    -136.838
  C      -75.161      31.400    -138.112
  N      -74.735      30.123    -138.208
  N      -75.351      32.101    -139.197
  C      -75.766      33.368    -138.953
  C      -76.015      33.968    -137.742
  C      -75.814      33.176    -136.546
  O      -76.000      33.550    -135.394
  N      -76.448      35.261    -137.907
  C      -76.462      35.439    -139.216
  N      -76.066      34.316    -139.894
  O      -79.083      38.687    -143.885
  O      -80.663      37.151    -142.575
  H      -77.849      32.142    -140.814
  H      -81.316      37.608    -143.136
  H      -75.223      31.302    -136.036
  H      -76.755      36.349    -139.720
  H      -75.257      33.335    -141.515
  H      -78.189      34.268    -141.396
  H      -74.551      29.528    -137.416
  H      -78.246      34.365    -143.780
  H      -74.547      29.749    -139.132
  H      -75.604      35.341    -144.070
  H      -76.420      37.514    -143.072
  H      -77.464      36.865    -144.362
  P      -77.207      32.724    -145.527
  C      -77.589      34.809    -146.990
  O      -76.677      33.786    -146.605
  O      -78.675      32.455    -145.566
  O      -76.370      31.405    -145.900
  H      -76.924      30.829    -146.461
  H      -77.123      35.451    -147.708
  H      -77.868      35.380    -146.129
  H      -78.462      34.365    -147.422

 6  7  8  9  10  11  12  13  14  15  26  29  33  34 0
 6-311+G(2d,p)
 ****
 36  38  39  40  41 0
 6-311+G(2d,p)
 ****
 1  2  3  4  5  16  17  18  19  20  21  22  23  24  25 0
 3-21G
 ****
 27  28  30  31  32  35  37  42  43  44  45  46  47 0
 3-21G
 ****
 48  49 0
 3-21G
 ****


