%nproc=1
%NoSave
%Mem=1900MB
#P OB98/GEN NMR

erre ene a

0 1
  C     -297.745      25.667     244.016
  O     -298.753      26.074     243.122
  H     -298.224      25.207     244.885
  H     -297.164      26.527     244.356
  H     -297.090      24.928     243.543
  P     -298.348      26.956     241.837
  C     -297.669      29.028     243.191
  O     -297.207      27.959     242.364
  C     -296.513      29.690     243.950
  O     -295.529      30.185     243.001
  C     -296.947      30.873     244.819
  O     -296.338      30.759     246.115
  C     -296.388      32.091     244.079
  O     -296.197      33.198     244.954
  C     -295.128      31.487     243.448
  N     -294.611      32.303     242.355
  C     -293.466      33.066     242.617
  O     -292.975      33.067     243.749
  N     -292.942      33.844     241.623
  C     -293.531      33.901     240.463
  N     -292.961      34.701     239.521
  C     -294.759      33.144     240.146
  C     -295.237      32.363     241.126
  O     -299.496      27.617     241.146
  O     -297.533      25.943     240.897
  H     -295.527      32.948     245.635
  H     -297.528      26.293     239.968
  H     -295.217      33.228     239.174
  H     -296.132      31.770     240.981
  H     -294.332      31.373     244.191
  H     -297.098      32.394     243.299
  H     -298.027      30.952     244.949
  H     -296.005      28.919     244.543
  H     -292.113      35.194     239.780
  H     -298.409      28.634     243.892
  H     -293.329      34.822     238.589
  H     -298.147      29.777     242.547
  P     -297.115      29.843     247.179
  C     -298.905      31.452     248.149
  O     -298.633      30.362     247.277
  O     -296.463      30.265     248.580
  O     -296.966      28.371     246.927
  H     -295.802      29.608     248.853
  H     -299.948      31.687     248.112
  H     -298.336      32.305     247.842
  H     -298.635      31.185     249.149

 6  7  8  9  10  11  12  13  14  15  16  26  30  31  32  33  35 0
 6-311+G(2d,p)
 ****
 37  38 0
 6-311+G(2d,p)
 ****
 1  2  3  4  5  17  18  19  20  21  22  23  24  25 0
 3-21G
 ****
 27  28  29  34  36  39  40  41  42  43  44  45  46 0
 3-21G
 ****


