%nproc=1
%NoSave
%Mem=1900MB
#P OB98/GEN NMR

erre ene a

0 1
  C      774.116    -270.488    -593.061
  O      774.524    -269.960    -591.820
  H      773.110    -270.110    -593.285
  H      774.075    -271.577    -593.007
  H      774.793    -270.178    -593.861
  P      776.079    -269.978    -591.442
  C      775.745    -267.824    -590.062
  O      776.268    -269.141    -590.084
  C      775.963    -267.134    -588.707
  O      775.037    -267.633    -587.731
  C      777.370    -267.425    -588.148
  O      778.400    -266.577    -588.631
  C      777.151    -267.209    -586.651
  O      777.272    -265.824    -586.298
  C      775.697    -267.689    -586.450
  N      774.389    -270.592    -582.460
  C      774.373    -269.207    -582.581
  N      774.029    -268.516    -581.465
  N      774.688    -268.577    -583.677
  C      775.109    -269.387    -584.674
  C      775.177    -270.765    -584.661
  C      774.770    -271.462    -583.461
  O      774.773    -272.681    -583.305
  N      775.653    -271.257    -585.867
  C      775.945    -270.168    -586.559
  N      775.602    -269.014    -585.889
  O      776.741    -269.011    -592.542
  O      776.730    -271.331    -591.461
  H      777.301    -265.756    -585.329
  H      777.674    -269.256    -592.681
  H      774.092    -271.018    -581.607
  H      776.369    -270.169    -587.559
  H      775.145    -267.010    -585.794
  H      777.883    -267.766    -586.058
  H      773.879    -268.956    -580.570
  H      777.642    -268.473    -588.313
  H      774.260    -267.522    -581.429
  H      775.786    -266.058    -588.812
  H      774.670    -267.903    -590.264
  H      776.175    -267.229    -590.869
  P      779.649    -267.204    -589.400
  C      779.461    -265.242    -591.098
  O      780.299    -266.030    -590.285
  O      778.964    -268.161    -590.494
  O      780.612    -267.954    -588.547
  H      778.929    -269.079    -590.163
  H      780.049    -264.513    -591.616
  H      778.735    -264.746    -590.488
  H      778.962    -265.868    -591.808

 6  7  8  9  10  11  12  13  14  15  26  29  33  34 0
 6-311+G(2d,p)
 ****
 36  38  39  40  41 0
 6-311+G(2d,p)
 ****
 1  2  3  4  5  16  17  18  19  20  21  22  23  24  25 0
 3-21G
 ****
 27  28  30  31  32  35  37  42  43  44  45  46  47 0
 3-21G
 ****
 48  49 0
 3-21G
 ****


