%nproc=1
%NoSave
%Mem=1900MB
#P OB98/GEN NMR

erre ene a

0 1
  C     -105.483     -73.673     -80.077
  O     -106.306     -72.886     -79.239
  H     -106.125     -74.239     -80.760
  H     -104.902     -74.378     -79.478
  H     -104.814     -73.042     -80.670
  P     -105.619     -71.845     -78.234
  C     -105.134     -71.744     -75.697
  O     -105.523     -72.561     -76.795
  C     -106.040     -72.001     -74.488
  O     -107.338     -71.389     -74.740
  C     -106.276     -73.485     -74.197
  O     -106.326     -73.683     -72.779
  C     -107.640     -73.752     -74.800
  O     -108.308     -74.849     -74.172
  C     -108.343     -72.410     -74.605
  N     -112.973     -73.907     -75.977
  C     -112.215     -74.251     -74.878
  N     -112.760     -75.142     -74.023
  N     -111.024     -73.771     -74.639
  C     -110.609     -72.870     -75.566
  C     -111.268     -72.446     -76.695
  C     -112.574     -73.007     -76.963
  O     -113.286     -72.749     -77.934
  N     -110.506     -71.540     -77.400
  C     -109.401     -71.418     -76.692
  N     -109.406     -72.215     -75.578
  O     -106.240     -70.482     -78.213
  O     -104.093     -71.781     -78.708
  H     -109.109     -75.039     -74.709
  H     -103.909     -70.956     -79.186
  H     -113.875     -74.318     -76.123
  H     -108.564     -70.776     -76.947
  H     -108.801     -72.321     -73.611
  H     -107.529     -73.992     -75.867
  H     -113.685     -75.539     -74.133
  H     -105.495     -74.119     -74.625
  H     -112.240     -75.395     -73.188
  H     -105.610     -71.489     -73.620
  H     -105.213     -70.695     -76.001
  H     -104.092     -71.964     -75.440
  P     -105.069     -74.341     -72.034
  C     -104.654     -76.359     -70.492
  O     -105.486     -75.797     -71.498
  O     -104.387     -73.471     -71.033
  O     -104.080     -74.689     -73.255
  H     -103.158     -74.568     -72.957
  H     -105.029     -77.323     -70.217
  H     -104.650     -75.719     -69.634
  H     -103.657     -76.458     -70.868

 6  7  8  9  10  11  12  13  14  15  26  29  33  34 0
 6-311+G(2d,p)
 ****
 36  38  39  40  41 0
 6-311+G(2d,p)
 ****
 1  2  3  4  5  16  17  18  19  20  21  22  23  24  25 0
 3-21G
 ****
 27  28  30  31  32  35  37  42  43  44  45  46  47 0
 3-21G
 ****
 48  49 0
 3-21G
 ****


