%nproc=1
%NoSave
%Mem=1900MB
#P OB98/GEN NMR

erre ene a

0 1
  C     -275.568     182.332    -105.181
  O     -276.299     183.084    -106.121
  P     -277.441     182.372    -106.991
  C     -279.145     182.724    -105.096
  O     -278.860     182.919    -106.481
  C     -279.870     183.936    -104.527
  O     -278.963     185.051    -104.388
  C     -281.009     184.448    -105.402
  O     -282.151     183.624    -105.275
  C     -281.187     185.862    -104.861
  O     -281.984     185.851    -103.668
  C     -279.740     186.260    -104.535
  N     -277.705     190.851    -105.452
  C     -278.355     190.351    -104.380
  N     -278.904     189.125    -104.221
  C     -278.749     188.398    -105.344
  C     -278.142     188.782    -106.532
  C     -277.576     190.076    -106.557
  N     -276.864     190.572    -107.625
  N     -278.214     187.766    -107.461
  C     -278.856     186.792    -106.854
  N     -279.142     187.107    -105.556
  O     -277.337     180.889    -107.095
  O     -277.297     183.052    -108.432
  H     -281.738     185.061    -103.155
  H     -277.090     182.368    -109.099
  H     -278.434     191.018    -103.530
  H     -279.125     185.839    -107.304
  H     -279.670     186.803    -103.585
  H     -281.683     186.531    -105.578
  H     -280.680     184.505    -106.446
  H     -280.240     183.682    -103.525
  H     -278.198     182.572    -104.566
  H     -276.381     191.444    -107.484
  H     -276.501     189.913    -108.313
  H     -279.764     181.826    -104.977
  P     -283.264     183.624    -106.434
  C     -282.025     182.186    -108.156
  O     -283.098     182.248    -107.241
  O     -283.317     184.857    -107.276
  O     -284.633     183.402    -105.635
  H     -285.358     183.861    -106.101
  H     -282.288     182.722    -109.072
  H     -281.831     181.136    -108.403
  H     -281.114     182.617    -107.722
  H     -274.854     182.964    -104.696
  H     -275.058     181.535    -105.681
  H     -276.237     181.925    -104.452

 3  4  5  6  7  8  9  10  11  12  22  25  29  30  31  32 0
 6-311+G(2d,p)
 ****
 33  36  37 0
 6-311+G(2d,p)
 ****
 1  2  13  14  15  16  17  18  19  20  21  23  24  26 0
 3-21G
 ****
 27  28  34  35  38  39  40  41  42  43  44  45  46  47  48 0
 3-21G
 ****


