%nproc=1
%NoSave
%Mem=1900MB
#P OB98/GEN NMR

erre ene a

0 1
  C      174.050    -127.916    -449.130
  O      175.193    -128.754    -449.125
  H      173.852    -127.553    -448.119
  H      174.249    -127.059    -449.783
  H      173.179    -128.456    -449.514
  P      175.053    -130.161    -448.368
  C      176.922    -129.717    -446.603
  O      176.504    -130.468    -447.742
  C      178.450    -129.616    -446.566
  O      179.007    -130.960    -446.623
  C      179.040    -128.820    -447.734
  O      180.144    -128.043    -447.250
  C      179.541    -129.893    -448.686
  O      180.586    -129.428    -449.517
  C      179.964    -130.986    -447.698
  N      182.914    -134.456    -450.026
  C      183.202    -133.285    -449.411
  N      182.356    -132.428    -448.812
  C      181.091    -132.901    -448.844
  C      180.645    -134.073    -449.427
  C      181.617    -134.873    -450.056
  N      181.330    -136.043    -450.714
  N      179.273    -134.193    -449.277
  C      178.908    -133.113    -448.622
  N      179.973    -132.305    -448.332
  O      174.943    -131.196    -449.590
  O      173.902    -130.282    -447.427
  H      181.296    -129.046    -448.950
  H      174.030    -131.191    -449.942
  H      184.257    -133.002    -449.414
  H      177.887    -132.871    -448.328
  H      180.966    -130.824    -447.289
  H      178.721    -130.229    -449.323
  H      178.310    -128.158    -448.206
  H      178.743    -129.189    -445.598
  H      176.560    -130.217    -445.701
  H      182.078    -136.522    -451.190
  H      180.367    -136.326    -450.798
  H      176.483    -128.715    -446.660
  P      179.811    -126.552    -446.729
  C      181.393    -125.082    -448.166
  O      181.131    -125.650    -446.891
  O      179.663    -126.736    -445.145
  O      178.565    -125.980    -447.333
  H      178.838    -126.322    -444.836
  H      182.298    -124.512    -448.123
  H      180.582    -124.443    -448.445
  H      181.497    -125.863    -448.890

 6  7  8  9  10  11  12  13  14  15  25  28  32  33  34  35 0
 6-311+G(2d,p)
 ****
 36  39  40 0
 6-311+G(2d,p)
 ****
 1  2  3  4  5  16  17  18  19  20  21  22  23  24 0
 3-21G
 ****
 26  27  29  30  31  37  38  41  42  43  44  45  46  47 0
 3-21G
 ****
 48 0
 3-21G
 ****


