%nproc=1
%NoSave
%Mem=1900MB
#P OB98/GEN NMR

erre ene a

0 1
  C     -433.497    1791.752    -241.674
  O     -434.524    1790.833    -241.408
  H     -432.926    1791.937    -240.735
  H     -433.902    1792.690    -242.012
  H     -432.789    1791.345    -242.418
  P     -435.402    1790.286    -242.623
  C     -434.823    1787.759    -242.311
  O     -434.704    1788.928    -243.144
  C     -434.192    1786.542    -243.030
  O     -434.727    1786.421    -244.355
  C     -432.652    1786.646    -243.115
  O     -432.112    1785.378    -242.915
  C     -432.447    1787.089    -244.581
  O     -431.178    1786.684    -245.081
  C     -433.630    1786.425    -245.266
  N     -432.485    1786.963    -250.180
  C     -431.981    1786.074    -249.233
  N     -430.999    1785.257    -249.660
  N     -432.389    1786.053    -247.981
  C     -433.367    1786.948    -247.724
  C     -433.952    1787.838    -248.584
  C     -433.510    1787.906    -249.936
  O     -433.905    1788.662    -250.805
  N     -434.942    1788.577    -247.912
  C     -434.911    1788.097    -246.661
  N     -434.010    1787.114    -246.508
  O     -435.712    1791.269    -243.687
  O     -436.740    1789.744    -241.926
  H     -431.164    1785.683    -245.065
  H     -437.494    1790.349    -242.098
  H     -432.155    1786.967    -251.099
  H     -435.549    1788.450    -245.867
  H     -433.415    1785.388    -245.548
  H     -432.539    1788.183    -244.655
  H     -430.656    1785.221    -250.605
  H     -432.244    1787.384    -242.416
  H     -430.607    1784.602    -249.002
  H     -434.470    1785.661    -242.458
  H     -435.891    1787.602    -242.177
  H     -434.356    1787.967    -241.355
  P     -431.439    1785.011    -241.479
  C     -432.682    1782.879    -240.681
  O     -432.577    1784.314    -240.601
  O     -430.706    1786.135    -240.823
  O     -430.461    1783.790    -241.832
  H     -429.691    1783.839    -241.227
  H     -433.478    1782.544    -240.049
  H     -431.762    1782.436    -240.361
  H     -432.884    1782.592    -241.692

 6  7  8  9  10  11  12  13  14  15  26  29  33  34 0
 6-311+G(2d,p)
 ****
 36  38  39  40  41 0
 6-311+G(2d,p)
 ****
 1  2  3  4  5  16  17  18  19  20  21  22  23  24  25 0
 3-21G
 ****
 27  28  30  31  32  35  37  42  43  44  45  46  47 0
 3-21G
 ****
 48  49 0
 3-21G
 ****


