%nproc=1
%NoSave
%Mem=1900MB
#P OB98/GEN NMR

erre ene a

0 1
  C     -302.199     178.196     -82.111
  O     -301.138     178.485     -81.199
  P     -299.651     178.004     -81.546
  C     -297.576     179.207     -80.595
  O     -298.685     178.362     -80.314
  C     -298.016     180.680     -80.681
  O     -298.858     181.007     -79.542
  C     -296.827     181.653     -80.687
  O     -296.886     182.599     -81.756
  C     -296.839     182.235     -79.283
  O     -296.205     183.500     -79.202
  C     -298.328     182.184     -78.908
  N     -298.523     182.167     -77.453
  C     -298.761     183.390     -76.845
  O     -298.732     184.462     -77.449
  N     -298.972     183.356     -75.490
  C     -298.890     182.249     -74.698
  O     -299.041     182.276     -73.484
  C     -298.573     180.991     -75.392
  C     -298.408     181.007     -76.718
  O     -299.134     178.400     -82.889
  O     -299.761     176.403     -81.436
  H     -296.819     184.180     -79.553
  H     -299.214     176.017     -82.147
  H     -299.162     184.235     -75.036
  H     -298.481     180.095     -74.793
  H     -298.164     180.099     -77.250
  H     -298.859     183.056     -79.297
  H     -296.288     181.554     -78.624
  H     -295.880     181.129     -80.852
  H     -298.605     180.790     -81.594
  H     -297.130     178.915     -81.543
  H     -296.806     179.058     -79.831
  P     -295.669     182.936     -82.736
  C     -296.724     182.609     -85.086
  O     -296.272     183.518     -84.100
  O     -294.658     181.853     -82.907
  O     -294.998     184.215     -82.051
  H     -294.024     184.143     -82.113
  H     -296.743     183.124     -86.050
  H     -297.730     182.275     -84.838
  H     -296.056     181.744     -85.159
  H     -303.117     178.587     -81.725
  H     -302.285     177.137     -82.233
  H     -301.989     178.648     -83.058

 3  4  5  6  7  8  9  10  11  12  13  23  28  29  30  31  32 0
 6-311+G(2d,p)
 ****
 33  34 0
 6-311+G(2d,p)
 ****
 1  2  14  15  16  17  18  19  20  21  22  24  25  26  27 0
 3-21G
 ****
 35  36  37  38  39  40  41  42  43  44  45 0
 3-21G
 ****


