%nproc=1
%NoSave
%Mem=1900MB
#P OB98/GEN NMR

erre ene a

0 1
  C     -434.340    -476.421     332.441
  O     -433.414    -475.699     331.624
  P     -431.835    -475.797     331.900
  C     -431.160    -473.328     331.888
  O     -431.101    -474.561     331.175
  C     -430.760    -472.111     331.036
  O     -429.407    -472.249     330.544
  C     -431.660    -471.855     329.818
  O     -431.691    -470.436     329.645
  C     -430.877    -472.521     328.697
  O     -431.276    -472.069     327.405
  C     -429.438    -472.187     329.105
  N     -428.463    -473.082     328.495
  C     -427.826    -472.645     327.335
  O     -428.136    -471.564     326.834
  N     -426.891    -473.459     326.747
  C     -426.686    -474.646     327.216
  N     -425.763    -475.413     326.572
  C     -427.397    -475.187     328.395
  C     -428.254    -474.356     328.980
  O     -431.232    -477.134     331.609
  O     -431.694    -475.443     333.459
  H     -430.601    -472.366     326.759
  H     -430.921    -475.913     333.826
  H     -427.211    -476.195     328.736
  H     -428.821    -474.657     329.852
  H     -429.183    -471.155     328.813
  H     -431.039    -473.611     328.732
  H     -432.667    -472.264     329.928
  H     -430.773    -471.235     331.693
  H     -425.319    -475.017     325.755
  H     -430.493    -473.392     332.752
  H     -425.608    -476.389     326.786
  H     -432.177    -473.186     332.274
  P     -432.897    -469.542     330.193
  C     -433.936    -468.385     328.151
  O     -433.011    -468.275     329.220
  O     -432.829    -469.206     331.644
  O     -434.223    -470.385     329.849
  H     -434.957    -470.050     330.387
  H     -434.077    -467.401     327.697
  H     -434.901    -468.756     328.515
  H     -433.543    -469.077     327.394
  H     -435.337    -476.230     332.104
  H     -434.240    -476.105     333.458
  H     -434.135    -477.469     332.372

 3  4  5  6  7  8  9  10  11  12  13  23  27  28  29  30  32 0
 6-311+G(2d,p)
 ****
 34  35 0
 6-311+G(2d,p)
 ****
 1  2  14  15  16  17  18  19  20  21  22  24  25  26 0
 3-21G
 ****
 31  33  36  37  38  39  40  41  42  43  44  45  46 0
 3-21G
 ****


