%nproc=1
%NoSave
%Mem=1900MB
#P OB98/GEN NMR

erre ene a

0 1
  C     1204.059     -68.658    -331.828
  O     1203.436     -69.345    -332.909
  P     1203.731     -68.800    -334.394
  C     1201.543     -69.744    -335.456
  O     1202.281     -68.595    -335.092
  C     1200.046     -69.437    -335.448
  O     1199.552     -69.365    -334.097
  C     1199.667     -68.089    -336.070
  O     1199.591     -68.170    -337.484
  C     1198.295     -67.863    -335.483
  O     1197.297     -68.631    -336.191
  C     1198.440     -68.431    -334.058
  N     1196.454     -64.498    -331.550
  C     1195.829     -65.470    -332.341
  N     1194.501     -65.341    -332.507
  N     1196.459     -66.470    -332.875
  C     1197.781     -66.478    -332.617
  C     1198.498     -65.594    -331.863
  C     1197.807     -64.465    -331.264
  O     1198.311     -63.551    -330.608
  N     1199.848     -65.936    -331.811
  C     1199.924     -67.030    -332.533
  N     1198.720     -67.380    -333.092
  O     1204.304     -70.081    -335.151
  O     1204.668     -67.635    -334.475
  H     1197.697     -69.486    -336.427
  H     1204.743     -69.822    -335.970
  H     1195.901     -63.723    -331.166
  H     1200.841     -67.594    -332.711
  H     1197.552     -68.976    -333.721
  H     1197.952     -66.812    -335.515
  H     1193.981     -64.546    -332.167
  H     1200.350     -67.293    -335.740
  H     1194.036     -65.985    -333.132
  H     1199.516     -70.259    -335.960
  H     1201.766     -70.568    -334.764
  H     1201.841     -70.059    -336.465
  P     1200.303     -66.958    -338.292
  C     1199.822     -68.216    -340.522
  O     1199.655     -67.027    -339.778
  O     1201.806     -67.518    -338.492
  O     1200.253     -65.629    -337.611
  H     1202.425     -66.745    -338.598
  H     1199.120     -68.201    -341.361
  H     1199.585     -69.094    -339.905
  H     1200.822     -68.310    -340.909
  H     1203.780     -69.120    -330.904
  H     1203.743     -67.636    -331.825
  H     1205.122     -68.702    -331.943

 3  4  5  6  7  8  9  10  11  12  23  26  30  31 0
 6-311+G(2d,p)
 ****
 33  35  36  37  38 0
 6-311+G(2d,p)
 ****
 1  2  13  14  15  16  17  18  19  20  21  22  24  25 0
 3-21G
 ****
 27  28  29  32  34  39  40  41  42  43  44  45  46  47  48  49 0
 3-21G
 ****


