%nproc=1
%NoSave
%Mem=1900MB
#P OB98/GEN NMR

erre ene a

0 1
  C      906.077     253.687     337.093
  O      906.506     253.086     338.301
  H      905.599     252.922     336.463
  H      906.937     254.100     336.558
  H      905.347     254.475     337.294
  P      907.040     254.075     339.449
  C      905.026     253.449     340.964
  O      905.762     254.490     340.323
  C      905.305     253.450     342.470
  O      904.814     254.681     343.065
  C      904.634     252.317     343.234
  O      905.398     251.115     343.161
  C      904.638     252.889     344.647
  O      905.967     252.766     345.210
  C      904.301     254.359     344.389
  N      900.497     255.985     347.313
  C      901.825     255.794     347.618
  N      902.203     256.063     348.899
  N      902.723     255.374     346.764
  C      902.200     255.132     345.534
  C      900.907     255.286     345.105
  C      899.928     255.763     346.064
  O      898.739     255.978     345.837
  N      900.763     254.950     343.781
  C      901.974     254.571     343.414
  N      902.878     254.654     344.440
  O      907.381     255.423     338.647
  O      908.220     253.587     340.217
  H      905.943     253.150     346.104
  H      908.174     255.837     339.048
  H      899.845     256.311     348.019
  H      902.235     254.239     342.421
  H      904.795     255.026     345.107
  H      903.962     252.358     345.313
  H      901.551     256.350     349.608
  H      903.596     252.159     342.906
  H      903.179     255.954     349.137
  H      906.390     253.436     342.608
  H      905.328     252.486     340.549
  H      903.954     253.603     340.780
  P      904.663     249.801     342.584
  C      906.230     249.376     340.561
  O      904.946     249.801     341.013
  O      903.107     250.195     342.685
  O      904.978     248.535     343.314
  H      902.566     249.381     342.716
  H      906.268     249.430     339.493
  H      906.402     248.367     340.873
  H      906.983     250.012     340.978

 6  7  8  9  10  11  12  13  14  15  26  29  33  34 0
 6-311+G(2d,p)
 ****
 36  38  39  40  41 0
 6-311+G(2d,p)
 ****
 1  2  3  4  5  16  17  18  19  20  21  22  23  24  25 0
 3-21G
 ****
 27  28  30  31  32  35  37  42  43  44  45  46  47 0
 3-21G
 ****
 48  49 0
 3-21G
 ****


