%nproc=1
%NoSave
%Mem=1900MB
#P OB98/GEN NMR

erre ene a

0 1
  C      854.683      88.320    -310.076
  O      854.535      88.203    -308.673
  H      853.777      88.776    -310.484
  H      854.811      87.333    -310.531
  H      855.536      88.956    -310.319
  P      855.701      87.486    -307.841
  C      856.422      85.027    -307.469
  O      855.673      85.939    -308.263
  C      856.248      83.595    -307.980
  O      854.923      83.116    -307.670
  C      856.404      83.446    -309.484
  O      857.766      83.516    -309.857
  C      855.733      82.099    -309.708
  O      856.611      81.024    -309.336
  C      854.542      82.194    -308.721
  N      853.297      82.619    -309.355
  C      852.553      81.609    -309.979
  O      852.961      80.454    -309.994
  N      851.368      81.961    -310.588
  C      850.948      83.181    -310.543
  N      849.766      83.459    -311.165
  C      851.678      84.267    -309.857
  C      852.839      83.919    -309.306
  O      855.700      87.722    -306.360
  O      857.049      88.021    -308.523
  H      856.112      80.197    -309.492
  H      857.387      88.801    -308.044
  H      851.285      85.265    -309.838
  H      853.445      84.651    -308.776
  H      854.366      81.218    -308.242
  H      855.444      81.941    -310.741
  H      855.813      84.215    -310.007
  H      856.964      82.957    -307.445
  H      849.287      82.675    -311.603
  H      856.050      85.112    -306.445
  H      849.261      84.326    -311.052
  H      857.483      85.301    -307.472
  P      858.296      84.594    -310.918
  C      857.484      85.384    -313.236
  O      857.131      84.718    -312.022
  O      859.656      84.333    -311.466
  O      858.170      85.989    -310.139
  H      858.913      86.088    -309.495
  H      856.637      85.407    -313.890
  H      858.287      84.859    -313.710
  H      857.792      86.385    -313.017

 6  7  8  9  10  11  12  13  14  15  16  26  30  31  32  33  35 0
 6-311+G(2d,p)
 ****
 37  38 0
 6-311+G(2d,p)
 ****
 1  2  3  4  5  17  18  19  20  21  22  23  24  25 0
 3-21G
 ****
 27  28  29  34  36  39  40  41  42  43  44  45  46 0
 3-21G
 ****


