%nproc=1
%NoSave
%Mem=1900MB
#P OB98/GEN NMR

erre ene a

0 1
  C       88.362    -132.207     163.957
  O       87.821    -132.768     162.780
  H       89.166    -132.855     164.317
  H       87.594    -132.144     164.732
  H       88.775    -131.213     163.763
  P       86.760    -131.915     161.933
  C       84.989    -133.754     162.300
  O       85.686    -132.955     161.352
  C       84.750    -135.149     161.728
  O       84.128    -135.993     162.720
  C       83.819    -135.174     160.519
  O       84.488    -134.721     159.357
  C       83.420    -136.641     160.500
  O       84.445    -137.443     159.894
  C       83.302    -136.948     162.013
  N       81.924    -136.910     162.504
  C       81.159    -138.052     162.286
  O       81.580    -139.037     161.682
  N       79.879    -138.014     162.773
  C       79.278    -136.939     163.366
  O       78.107    -136.939     163.737
  C       80.125    -135.748     163.536
  C       81.386    -135.789     163.106
  O       87.336    -130.979     160.923
  O       85.929    -131.131     163.055
  H       84.053    -138.324     159.734
  H       86.249    -130.213     163.122
  H       79.305    -138.826     162.614
  H       79.681    -134.877     163.998
  H       82.025    -134.919     163.219
  H       83.714    -137.941     162.233
  H       82.505    -136.822     159.936
  H       82.926    -134.568     160.716
  H       85.726    -135.587     161.477
  H       84.026    -133.279     162.520
  H       85.579    -133.807     163.222
  P       83.841    -133.590     158.428
  C       82.011    -134.897     157.200
  O       83.301    -134.308     157.096
  O       84.702    -132.395     158.187
  O       82.494    -133.185     159.191
  H       82.603    -132.312     159.616
  H       81.747    -135.345     156.265
  H       81.294    -134.143     157.449
  H       82.021    -135.646     157.964

 6  7  8  9  10  11  12  13  14  15  16  26  31  32  33  34  35 0
 6-311+G(2d,p)
 ****
 36  37 0
 6-311+G(2d,p)
 ****
 1  2  3  4  5  17  18  19  20  21  22  23  24  25 0
 3-21G
 ****
 27  28  29  30  38  39  40  41  42  43  44  45 0
 3-21G
 ****


