%nproc=1
%NoSave
%Mem=1900MB
#P OB98/GEN NMR

erre ene a

0 1
  C      431.638     207.817    -341.862
  O      430.468     208.540    -341.475
  P      429.363     207.798    -340.582
  C      429.959     208.409    -338.147
  O      429.113     208.678    -339.260
  C      429.141     208.288    -336.861
  O      429.925     207.740    -335.782
  C      428.633     209.629    -336.350
  O      427.551     210.097    -337.139
  C      428.287     209.283    -334.907
  O      426.994     208.668    -334.821
  C      429.384     208.261    -334.547
  N      430.432     208.810    -333.700
  C      430.096     208.989    -332.350
  O      428.964     208.726    -331.948
  N      431.057     209.480    -331.497
  C      432.234     209.775    -331.951
  N      433.147     210.252    -331.060
  C      432.621     209.610    -333.365
  C      431.679     209.135    -334.178
  O      429.593     206.344    -340.342
  O      428.010     208.042    -341.417
  H      426.982     207.965    -335.502
  H      427.404     207.288    -341.262
  H      433.620     209.860    -333.694
  H      431.876     208.990    -335.232
  H      428.944     207.403    -334.018
  H      428.265     210.174    -334.272
  H      429.448     210.367    -336.366
  H      428.293     207.619    -337.055
  H      432.854     210.368    -330.097
  H      430.698     209.208    -338.050
  H      434.104     210.462    -331.302
  H      430.516     207.487    -338.347
  P      427.644     211.584    -337.723
  C      429.159     211.791    -339.819
  O      427.880     211.472    -339.303
  O      429.063     212.096    -337.176
  O      426.541     212.495    -337.298
  H      429.017     213.054    -336.993
  H      429.241     211.369    -340.829
  H      429.954     211.372    -339.197
  H      429.271     212.873    -339.881
  H      432.270     208.449    -342.450
  H      431.354     206.961    -342.439
  H      432.166     207.499    -340.988

 3  4  5  6  7  8  9  10  11  12  13  23  27  28  29  30  32 0
 6-311+G(2d,p)
 ****
 34  35 0
 6-311+G(2d,p)
 ****
 1  2  14  15  16  17  18  19  20  21  22  24  25  26 0
 3-21G
 ****
 31  33  36  37  38  39  40  41  42  43  44  45  46 0
 3-21G
 ****


