%nproc=1
%NoSave
%Mem=1900MB
#P OB98/GEN NMR

erre ene a

0 1
  C      119.252     159.926    -173.335
  O      120.036     160.408    -174.407
  H      118.891     158.927    -173.591
  H      118.389     160.576    -173.171
  H      119.849     159.859    -172.422
  P      120.687     161.871    -174.283
  C      119.588     162.906    -176.390
  O      120.774     162.391    -175.802
  C      119.818     163.195    -177.871
  O      120.717     164.310    -178.054
  C      120.457     162.056    -178.656
  O      119.578     160.973    -178.913
  C      120.846     162.797    -179.923
  O      119.679     163.021    -180.730
  C      121.386     164.122    -179.334
  N      122.838     164.110    -179.157
  C      123.584     164.882    -180.056
  O      123.030     165.523    -180.946
  N      124.954     164.886    -179.943
  C      125.529     164.164    -179.033
  N      126.888     164.199    -178.974
  C      124.783     163.321    -178.080
  C      123.457     163.341    -178.193
  O      121.956     161.958    -173.499
  O      119.510     162.784    -173.697
  H      119.126     163.670    -180.258
  H      119.865     163.701    -173.591
  H      125.310     162.715    -177.358
  H      122.838     162.744    -177.533
  H      121.112     164.972    -179.972
  H      121.567     162.253    -180.537
  H      121.373     161.705    -178.162
  H      118.849     163.488    -178.300
  H      127.375     164.786    -179.640
  H      119.306     163.816    -175.851
  H      127.423     163.611    -178.345
  H      118.779     162.176    -176.303
  P      119.956     159.556    -178.256
  C      119.466     158.267    -180.475
  O      119.167     158.445    -179.098
  O      119.195     159.598    -176.851
  O      121.423     159.294    -178.111
  H      119.808     159.849    -176.134
  H      118.850     157.490    -180.876
  H      120.496     157.998    -180.584
  H      119.278     159.179    -181.002

 6  7  8  9  10  11  12  13  14  15  16  26  30  31  32  33  35 0
 6-311+G(2d,p)
 ****
 37  38 0
 6-311+G(2d,p)
 ****
 1  2  3  4  5  17  18  19  20  21  22  23  24  25 0
 3-21G
 ****
 27  28  29  34  36  39  40  41  42  43  44  45  46 0
 3-21G
 ****


