%nproc=1
%NoSave
%Mem=1900MB
#P OB98/GEN NMR

erre ene a

0 1
  C      378.510     484.288     762.752
  O      379.756     484.977     762.816
  P      379.883     486.414     762.102
  C      380.066     488.886     762.812
  O      379.907     487.538     763.253
  C      379.936     489.858     763.992
  O      378.644     489.744     764.632
  C      380.957     489.598     765.095
  O      382.235     490.052     764.703
  C      380.324     490.353     766.259
  O      380.626     491.756     766.190
  C      378.814     490.123     766.012
  N      378.236     489.143     766.918
  C      376.854     489.238     767.145
  O      376.204     490.142     766.618
  N      376.263     488.307     767.966
  C      376.978     487.378     768.524
  N      376.335     486.489     769.326
  C      378.440     487.249     768.324
  C      378.993     488.158     767.533
  O      378.934     486.663     760.980
  O      381.406     486.417     761.583
  H      380.102     492.191     766.887
  H      381.459     486.975     760.780
  H      378.996     486.448     768.807
  H      380.066     488.143     767.333
  H      378.264     491.063     766.155
  H      380.696     489.999     767.223
  H      380.992     488.531     765.325
  H      380.045     490.880     763.602
  H      375.339     486.607     769.451
  H      379.301     489.117     762.058
  H      376.792     485.705     769.756
  H      381.039     488.988     762.324
  P      383.381     488.947     764.479
  C      384.211     487.499     762.494
  O      383.423     488.612     762.914
  O      382.738     487.625     765.128
  O      384.702     489.271     765.106
  H      383.442     487.084     765.522
  H      383.884     487.222     761.483
  H      384.083     486.645     763.153
  H      385.256     487.795     762.443
  H      378.591     483.356     763.271
  H      378.255     484.106     761.729
  H      377.748     484.885     763.208

 3  4  5  6  7  8  9  10  11  12  13  23  27  28  29  30  32 0
 6-311+G(2d,p)
 ****
 34  35 0
 6-311+G(2d,p)
 ****
 1  2  14  15  16  17  18  19  20  21  22  24  25  26 0
 3-21G
 ****
 31  33  36  37  38  39  40  41  42  43  44  45  46 0
 3-21G
 ****


