%nproc=1
%NoSave
%Mem=1900MB
#P OB98/GEN NMR

erre ene a

0 1
  C     2126.894    -891.504     408.509
  O     2127.352    -892.744     408.012
  H     2126.065    -891.164     407.871
  H     2127.681    -890.764     408.468
  H     2126.519    -891.614     409.517
  P     2128.584    -893.454     408.733
  C     2127.202    -895.604     409.077
  O     2127.934    -894.544     409.710
  C     2125.775    -895.674     409.573
  O     2125.100    -894.434     409.271
  C     2124.956    -896.814     408.935
  O     2124.246    -897.514     409.972
  C     2123.969    -896.074     408.033
  O     2122.790    -896.834     407.787
  C     2123.772    -894.764     408.821
  N     2123.170    -893.734     407.998
  C     2121.794    -893.534     408.179
  O     2121.163    -894.214     409.005
  N     2121.159    -892.604     407.407
  C     2121.836    -891.974     406.500
  N     2121.126    -891.074     405.734
  C     2123.253    -892.174     406.263
  C     2123.872    -893.054     407.026
  O     2129.562    -892.524     409.380
  O     2129.267    -894.374     407.596
  H     2122.224    -896.344     407.134
  H     2130.196    -894.564     407.849
  H     2123.782    -891.614     405.471
  H     2124.948    -893.254     406.941
  H     2123.142    -894.934     409.724
  H     2124.448    -895.874     407.077
  H     2125.565    -897.524     408.375
  H     2125.792    -895.764     410.668
  H     2120.127    -890.984     405.937
  H     2127.744    -896.554     409.259
  H     2121.520    -890.544     404.979
  H     2127.216    -895.404     407.998
  P     2124.554    -899.084     410.093
  C     2125.275    -899.214     412.591
  O     2125.672    -899.254     411.222
  O     2125.304    -899.414     408.725
  O     2123.319    -899.914     410.289
  H     2124.716    -899.984     408.163
  H     2126.134    -899.342     413.215
  H     2124.575    -900.000     412.782
  H     2124.818    -898.270     412.802

 6  7  8  9  10  11  12  13  14  15  16  26  30  31  32  33  35 0
 6-311+G(2d,p)
 ****
 37  38 0
 6-311+G(2d,p)
 ****
 1  2  3  4  5  17  18  19  20  21  22  23  24  25 0
 3-21G
 ****
 27  28  29  34  36  39  40  41  42  43  44  45  46 0
 3-21G
 ****


