%nproc=1
%NoSave
%Mem=1900MB
#P OB98/GEN NMR

erre ene a

0 1
  C      188.491      35.678     -52.154
  O      188.248      36.954     -52.718
  P      189.452      37.807     -53.340
  C      191.598      38.960     -52.518
  O      190.401      38.289     -52.140
  C      192.134      39.794     -51.356
  O      191.258      40.915     -51.081
  C      192.230      39.039     -50.041
  O      193.304      38.113     -50.035
  C      192.366      40.190     -49.049
  O      193.718      40.669     -49.005
  C      191.439      41.251     -49.681
  N      190.161      41.357     -48.991
  C      189.963      42.519     -48.238
  O      190.868      43.348     -48.120
  N      188.742      42.708     -47.632
  C      187.851      41.766     -47.672
  N      186.640      42.033     -47.106
  C      188.088      40.459     -48.318
  C      189.242      40.333     -48.972
  O      189.043      38.887     -54.287
  O      190.356      36.714     -54.084
  H      190.539      37.020     -54.995
  H      193.715      41.452     -48.416
  H      187.337      39.682     -48.262
  H      189.489      39.414     -49.495
  H      191.927      42.235     -49.673
  H      192.089      39.897     -48.031
  H      191.289      38.506     -49.852
  H      193.117      40.190     -51.646
  H      186.511      42.948     -46.687
  H      191.379      39.614     -53.369
  H      185.797      41.524     -47.357
  H      192.342      38.219     -52.834
  P      192.998      36.654     -49.445
  C      192.108      35.756     -47.185
  O      192.746      36.815     -47.872
  O      194.424      35.920     -49.529
  O      191.951      35.888     -50.186
  H      194.296      34.980     -49.752
  H      192.317      35.853     -46.117
  H      192.467      34.781     -47.529
  H      191.025      35.821     -47.339
  H      187.572      35.267     -51.793
  H      189.182      35.772     -51.343
  H      188.903      35.031     -52.900

 3  4  5  6  7  8  9  10  11  12  13  24  27  28  29  30  32 0
 6-311+G(2d,p)
 ****
 34  35 0
 6-311+G(2d,p)
 ****
 1  2  14  15  16  17  18  19  20  21  22  23  25  26 0
 3-21G
 ****
 31  33  36  37  38  39  40  41  42  43  44  45  46 0
 3-21G
 ****


