%nproc=1
%NoSave
%Mem=1900MB
#P OB98/GEN NMR

erre ene a

0 1
  C     -182.761     355.780     451.811
  O     -183.705     356.296     450.889
  P     -185.048     357.018     451.393
  C     -185.407     357.585     448.905
  O     -185.997     357.073     450.095
  C     -186.001     356.884     447.689
  O     -187.400     357.230     447.594
  C     -185.395     357.265     446.334
  O     -184.207     356.557     445.994
  C     -186.523     356.839     445.397
  O     -186.478     355.416     445.202
  C     -187.765     357.234     446.184
  N     -190.320     359.925     442.666
  C     -190.009     358.613     442.745
  N     -189.318     357.975     443.709
  C     -188.949     358.842     444.678
  C     -189.200     360.201     444.736
  C     -189.922     360.749     443.660
  N     -190.246     362.088     443.580
  N     -188.651     360.748     445.886
  C     -188.108     359.737     446.514
  N     -188.262     358.552     445.826
  O     -184.830     358.312     452.096
  O     -185.764     355.920     452.313
  H     -185.577     355.203     444.880
  H     -186.437     356.355     452.877
  H     -190.368     357.983     441.937
  H     -187.574     359.802     447.453
  H     -188.582     356.519     446.064
  H     -186.435     357.310     444.402
  H     -185.247     358.349     446.266
  H     -185.925     355.801     447.853
  H     -184.328     357.388     448.954
  H     -190.879     362.368     442.842
  H     -190.095     362.658     444.406
  H     -185.557     358.666     448.859
  P     -182.897     357.438     445.666
  C     -181.493     355.323     446.292
  O     -181.724     356.383     445.393
  O     -182.591     358.491     446.670
  O     -183.225     358.006     444.205
  H     -183.263     357.354     443.493
  H     -180.761     354.619     445.846
  H     -182.406     354.771     446.503
  H     -181.065     355.715     447.234
  H     -181.944     355.342     451.277
  H     -183.228     355.035     452.421
  H     -182.398     356.573     452.431

 3  4  5  6  7  8  9  10  11  12  22  25  29  30  31  32 0
 6-311+G(2d,p)
 ****
 33  36  37 0
 6-311+G(2d,p)
 ****
 1  2  13  14  15  16  17  18  19  20  21  23  24  26 0
 3-21G
 ****
 27  28  34  35  38  39  40  41  42  43  44  45  46  47  48 0
 3-21G
 ****


