%nproc=1
%NoSave
%Mem=1900MB
#P OB98/GEN NMR

erre ene a

0 1
  C     -254.575     243.650    -230.601
  O     -255.591     244.616    -230.901
  P     -255.123     246.155    -230.915
  C     -255.368     246.478    -228.346
  O     -254.498     246.498    -229.475
  C     -254.604     246.244    -227.041
  O     -253.833     247.430    -226.719
  C     -255.484     245.938    -225.825
  O     -254.816     244.973    -225.001
  C     -255.503     247.252    -225.065
  O     -255.814     247.070    -223.685
  C     -254.085     247.747    -225.342
  N     -252.159     251.242    -222.229
  C     -252.016     249.868    -222.211
  N     -251.273     249.355    -221.205
  N     -252.554     249.072    -223.098
  C     -253.241     249.728    -224.064
  C     -253.448     251.080    -224.197
  C     -252.880     251.949    -223.183
  O     -253.017     253.171    -223.117
  N     -254.202     251.367    -225.309
  C     -254.460     250.189    -225.839
  N     -253.907     249.164    -225.118
  O     -256.510     246.957    -230.938
  O     -254.268     246.515    -232.084
  H     -255.999     247.954    -223.315
  H     -256.536     247.554    -231.708
  H     -251.744     251.806    -221.516
  H     -255.059     250.020    -226.723
  H     -253.351     247.212    -224.729
  H     -256.257     247.916    -225.504
  H     -250.778     249.917    -220.528
  H     -256.492     245.583    -226.072
  H     -251.120     248.349    -221.202
  H     -253.890     245.432    -227.205
  H     -256.112     245.686    -228.476
  H     -255.906     247.432    -228.303
  P     -255.636     243.641    -224.646
  C     -256.591     244.574    -222.411
  O     -256.858     244.113    -223.724
  O     -254.670     242.864    -223.634
  O     -255.998     242.812    -225.837
  H     -254.835     241.903    -223.679
  H     -255.521     244.737    -222.244
  H     -256.950     243.833    -221.694
  H     -257.121     245.512    -222.251
  H     -255.000     242.668    -230.620
  H     -254.173     243.846    -229.629
  H     -253.794     243.715    -231.330

 3  4  5  6  7  8  9  10  11  12  23  26  30  31  33  0
 6-311+G(2d,p)
 ****
 35  36  37  38 0
 6-311+G(2d,p)
 ****
 1  2  13  14  15  16  17  18  19  20  21  22  24  25  27  28  29 0
 3-21G
 ****
 32  34  39  40  41  42  43  44  45  46  47  48  49 0
 3-21G
 ****


