%nproc=1
%NoSave
%Mem=1900MB
#P OB98/GEN NMR

erre ene a

0 1
  C       50.423       2.706      62.053
  O       49.033       2.810      62.307
  P       48.471       3.609      63.584
  C       48.528       1.448      65.003
  O       48.980       2.783      64.860
  C       48.763       0.957      66.433
  O       50.193       0.905      66.675
  C       48.140       1.846      67.517
  O       47.713       0.985      68.579
  C       49.310       2.704      67.962
  O       49.126       3.248      69.260
  C       50.464       1.702      67.846
  N       51.764       2.354      67.748
  C       52.258       2.995      68.885
  O       51.605       3.026      69.927
  N       53.492       3.592      68.820
  C       54.137       3.623      67.695
  N       55.381       4.176      67.696
  C       53.603       3.055      66.443
  C       52.437       2.424      66.549
  O       47.006       3.876      63.559
  O       49.375       4.923      63.657
  H       49.971       3.640      69.552
  H       49.041       5.654      63.080
  H       54.166       3.131      65.524
  H       51.981       1.956      65.689
  H       50.457       1.017      68.701
  H       49.438       3.537      67.263
  H       47.286       2.423      67.153
  H       48.380      -0.069      66.513
  H       55.781       4.395      68.603
  H       49.095       0.815      64.315
  H       56.053       3.949      66.972
  H       47.468       1.386      64.735
  P       46.452       1.438      69.464
  C       47.841       2.607      71.318
  O       46.872       2.738      70.299
  O       46.433       0.303      70.602
  O       45.131       1.479      68.767
  H       45.524       0.218      70.949
  H       48.006       3.588      71.772
  H       48.788       2.252      70.904
  H       47.491       1.919      72.092
  H       50.581       2.137      61.160
  H       50.900       2.217      62.876
  H       50.837       3.685      61.930

 3  4  5  6  7  8  9  10  11  12  13  23  27  28  29  30  32 0
 6-311+G(2d,p)
 ****
 34  35 0
 6-311+G(2d,p)
 ****
 1  2  14  15  16  17  18  19  20  21  22  24  25  26 0
 3-21G
 ****
 31  33  36  37  38  39  40  41  42  43  44  45  46 0
 3-21G
 ****


