%nproc=1
%NoSave
%Mem=1900MB
#P OB98/GEN NMR

erre ene a

0 1
  C       94.197     -49.495       8.870
  O       93.243     -48.602       8.325
  H       94.432     -49.179       9.890
  H       95.115     -49.477       8.274
  H       93.789     -50.511       8.899
  P       92.811     -48.865       6.801
  C       93.922     -46.705       5.881
  O       93.909     -48.127       5.889
  C       93.845     -46.176       4.453
  O       95.038     -46.522       3.714
  C       92.660     -46.703       3.649
  O       91.489     -45.950       3.917
  C       93.164     -46.521       2.223
  O       93.014     -45.149       1.794
  C       94.652     -46.888       2.358
  N       94.138     -50.705      -0.906
  C       93.626     -49.425      -0.946
  N       92.831     -49.119      -2.000
  N       93.856     -48.518      -0.030
  C       94.615     -48.981       0.994
  C       95.179     -50.227       1.149
  C       94.962     -51.197       0.100
  O       95.457     -52.324       0.034
  N       95.903     -50.303       2.315
  C       95.743     -49.121       2.876
  N       94.966     -48.284       2.115
  O       91.508     -47.951       6.620
  O       92.525     -50.288       6.453
  H       93.240     -45.087       0.849
  H       90.868     -48.424       6.052
  H       93.955     -51.347      -1.654
  H       96.175     -48.814       3.823
  H       95.278     -46.301       1.678
  H       92.600     -47.128       1.514
  H       92.389     -49.831      -2.559
  H       92.497     -47.774       3.842
  H       92.398     -48.204      -1.987
  H       93.814     -45.081       4.508
  H       94.849     -46.358       6.351
  H       93.066     -46.338       6.460
  P       90.067     -46.686       3.801
  C       89.694     -45.712       1.419
  O       89.734     -46.872       2.239
  O       89.042     -45.554       4.271
  O       89.931     -47.918       4.638
  H       88.719     -45.751       5.171
  H       89.462     -45.994       0.413
  H       90.647     -45.226       1.442
  H       88.943     -45.043       1.784

 6  7  8  9  10  11  12  13  14  15  26  29  33  34 0
 6-311+G(2d,p)
 ****
 36  38  39  40  41 0
 6-311+G(2d,p)
 ****
 1  2  3  4  5  16  17  18  19  20  21  22  23  24  25 0
 3-21G
 ****
 27  28  30  31  32  35  37  42  43  44  45  46  47 0
 3-21G
 ****
 48  49 0
 3-21G
 ****


