%nproc=1
%NoSave
%Mem=1900MB
#P OB98/GEN NMR

erre ene a

0 1
  C      -41.297      31.085     -25.539
  O      -42.444      30.298     -25.798
  H      -41.007      30.944     -24.494
  H      -41.504      32.144     -25.706
  H      -40.471      30.762     -26.177
  P      -43.230      30.540     -27.177
  C      -44.974      32.177     -26.215
  O      -43.841      32.024     -27.064
  C      -46.231      32.499     -27.021
  O      -46.109      33.783     -27.669
  C      -46.513      31.520     -28.150
  O      -46.854      30.219     -27.731
  C      -47.491      32.306     -29.009
  O      -48.830      32.223     -28.524
  C      -46.955      33.749     -28.841
  N      -46.251      34.220     -30.027
  C      -46.910      35.178     -30.787
  O      -48.032      35.607     -30.516
  N      -46.250      35.612     -31.904
  C      -45.043      35.157     -32.346
  O      -44.512      35.573     -33.369
  C      -44.411      34.115     -31.523
  C      -45.032      33.701     -30.415
  O      -44.241      29.494     -27.539
  O      -42.064      30.711     -28.258
  H      -49.096      31.285     -28.581
  H      -42.414      30.621     -29.178
  H      -46.705      36.319     -32.461
  H      -43.459      33.721     -31.850
  H      -44.583      32.934     -29.789
  H      -47.784      34.441     -28.643
  H      -47.500      31.960     -30.045
  H      -45.598      31.410     -28.746
  H      -47.075      32.557     -26.326
  H      -44.766      33.004     -25.527
  H      -45.121      31.262     -25.633
  P      -46.474      28.899     -28.539
  C      -48.898      28.567     -29.459
  O      -47.514      28.721     -29.745
  O      -46.126      27.694     -27.728
  O      -45.137      29.367     -29.316
  H      -44.553      28.585     -29.378
  H      -49.442      28.461     -30.374
  H      -49.251      29.428     -28.932
  H      -49.043      27.695     -28.856

 6  7  8  9  10  11  12  13  14  15  16  26  31  32  33  34  35 0
 6-311+G(2d,p)
 ****
 36  37 0
 6-311+G(2d,p)
 ****
 1  2  3  4  5  17  18  19  20  21  22  23  24  25 0
 3-21G
 ****
 27  28  29  30  38  39  40  41  42  43  44  45 0
 3-21G
 ****


