%nproc=1
%NoSave
%Mem=1900MB
#P OB98/GEN NMR

erre ene a

0 1
  C     -254.627     767.461     296.678
  O     -255.627     766.621     297.204
  H     -254.874     768.496     296.922
  H     -254.594     767.355     295.589
  H     -253.643     767.226     297.097
  P     -255.307     765.064     297.399
  C     -254.568     764.436     295.004
  O     -255.578     764.319     296.005
  C     -255.115     764.132     293.612
  O     -255.324     762.711     293.469
  C     -256.465     764.801     293.352
  O     -256.379     766.129     292.852
  C     -257.088     763.868     292.313
  O     -256.713     764.247     290.979
  C     -256.500     762.503     292.670
  N     -261.250     760.636     292.955
  C     -260.766     761.653     292.158
  N     -261.674     762.273     291.368
  N     -259.515     762.037     292.152
  C     -258.751     761.388     293.068
  C     -259.125     760.380     293.925
  C     -260.495     759.919     293.867
  O     -260.968     759.008     294.545
  N     -258.086     760.003     294.742
  C     -257.117     760.841     294.433
  N     -257.447     761.647     293.369
  O     -256.522     764.545     298.310
  O     -253.993     764.756     298.047
  H     -255.747     764.134     290.896
  H     -256.214     763.817     298.879
  H     -262.219     760.370     292.892
  H     -256.140     760.874     294.911
  H     -256.182     761.953     291.774
  H     -258.188     763.912     292.364
  H     -262.660     762.077     291.394
  H     -257.092     764.784     294.251
  H     -261.405     763.144     290.910
  H     -254.369     764.420     292.858
  H     -253.788     763.717     295.269
  H     -254.117     765.434     295.033
  P     -257.140     767.334     293.583
  C     -259.499     766.851     292.532
  O     -258.406     767.732     292.700
  O     -256.138     768.564     293.370
  O     -257.459     767.109     295.026
  H     -255.599     768.710     294.169
  H     -260.236     767.311     291.907
  H     -259.929     766.630     293.487
  H     -259.160     765.945     292.075

 6  7  8  9  10  11  12  13  14  15  26  29  33  34 0
 6-311+G(2d,p)
 ****
 36  38  39  40  41 0
 6-311+G(2d,p)
 ****
 1  2  3  4  5  16  17  18  19  20  21  22  23  24  25 0
 3-21G
 ****
 27  28  30  31  32  35  37  42  43  44  45  46  47 0
 3-21G
 ****
 48  49 0
 3-21G
 ****


