%nproc=1
%NoSave
%Mem=1900MB
#P OB98/GEN NMR

erre ene a

0 1
  C     -196.697     -47.693     114.367
  O     -195.830     -46.576     114.387
  H     -196.570     -48.221     113.417
  H     -197.737     -47.363     114.449
  H     -196.456     -48.376     115.186
  P     -195.832     -45.686     115.722
  C     -197.647     -44.390     117.063
  O     -197.361     -45.280     115.988
  C     -199.114     -44.519     117.464
  O     -199.373     -45.868     117.916
  C     -199.528     -43.614     118.618
  O     -199.764     -42.283     118.188
  C     -200.783     -44.320     119.113
  O     -201.933     -43.958     118.340
  C     -200.444     -45.799     118.884
  N     -202.048     -47.232     123.507
  C     -202.686     -46.642     122.472
  N     -202.189     -46.308     121.262
  C     -200.894     -46.659     121.171
  C     -200.110     -47.259     122.143
  C     -200.741     -47.555     123.362
  N     -200.083     -48.125     124.430
  N     -198.814     -47.416     121.692
  C     -198.818     -46.929     120.468
  N     -200.052     -46.466     120.110
  O     -195.153     -44.317     115.237
  O     -195.118     -46.283     116.887
  H     -202.203     -43.069     118.638
  H     -194.199     -44.339     115.435
  H     -203.732     -46.402     122.640
  H     -197.957     -46.881     119.810
  H     -201.291     -46.358     118.467
  H     -201.000     -44.066     120.153
  H     -198.772     -43.637     119.412
  H     -199.735     -44.333     116.579
  H     -197.450     -43.363     116.743
  H     -196.992     -44.634     117.908
  H     -200.593     -48.287     125.282
  H     -199.085     -48.268     124.367
  P     -199.627     -41.100     119.260
  C     -200.892     -40.378     121.415
  O     -200.669     -41.390     120.445
  O     -200.259     -39.841     118.497
  O     -198.231     -40.833     119.718
  H     -199.553     -39.273     118.135
  H     -201.608     -40.723     122.132
  H     -201.265     -39.498     120.933
  H     -199.972     -40.150     121.911

 6  7  8  9  10  11  12  13  14  15  25  28  32  33  34  35 0
 6-311+G(2d,p)
 ****
 36  37  40 0
 6-311+G(2d,p)
 ****
 1  2  3  4  5  16  17  18  19  20  21  22  23  24 0
 3-21G
 ****
 26  27  29  30  31  38  39 41  42  43  44  45  46  47  48 0
 3-21G
 ****


