%nproc=1
%NoSave
%Mem=1900MB
#P OB98/GEN NMR

erre ene a

0 1
  C      819.353     377.794    -517.668
  O      819.998     378.163    -518.883
  P      821.444     377.528    -519.187
  C      820.925     377.394    -521.736
  O      821.781     377.882    -520.711
  C      821.634     377.449    -523.098
  O      821.665     378.826    -523.555
  C      823.086     376.945    -523.089
  O      823.323     376.348    -524.373
  C      823.891     378.218    -522.962
  O      825.236     378.064    -523.396
  C      823.043     379.183    -523.784
  N      826.013     383.216    -524.496
  C      826.152     381.929    -524.976
  N      827.190     381.706    -525.802
  N      825.338     380.948    -524.667
  C      824.333     381.331    -523.849
  C      824.114     382.568    -523.275
  C      824.995     383.646    -523.654
  O      824.861     384.823    -523.318
  N      823.030     382.539    -522.417
  C      822.560     381.313    -522.535
  N      823.287     380.566    -523.416
  O      821.147     375.963    -519.210
  O      822.529     377.907    -518.219
  H      825.671     378.939    -523.365
  H      821.315     375.559    -518.339
  H      826.651     383.937    -524.787
  H      821.705     380.921    -522.001
  H      823.250     379.084    -524.871
  H      823.914     378.528    -521.905
  H      827.835     382.416    -526.105
  H      823.286     376.221    -522.289
  H      827.301     380.775    -526.188
  H      821.030     376.877    -523.814
  H      820.034     378.037    -521.792
  H      820.614     376.374    -521.504
  P      823.509     374.752    -524.428
  C      822.628     374.552    -526.857
  O      823.714     374.345    -525.964
  O      822.052     374.203    -524.084
  O      824.523     374.213    -523.465
  H      822.117     373.360    -523.612
  H      823.015     374.617    -527.881
  H      822.088     375.466    -526.636
  H      821.933     373.701    -526.786
  H      818.407     378.290    -517.602
  H      819.965     378.081    -516.838
  H      819.203     376.735    -517.651

 3  4  5  6  7  8  9  10  11  12  23  26  30  31 0
 6-311+G(2d,p)
 ****
 33  35  36  37  38 0
 6-311+G(2d,p)
 ****
 1  2  13  14  15  16  17  18  19  20  21  22  24  25 0
 3-21G
 ****
 27  28  29  32  34  39  40  41  42  43  44  45  46  47  48  49 0
 3-21G
 ****


