%nproc=1
%NoSave
%Mem=1900MB
#P OB98/GEN NMR

erre ene a

0 1
  C     -433.791    1074.350    -344.757
  O     -433.806    1074.811    -346.094
  H     -434.706    1074.657    -344.233
  H     -433.736    1073.265    -344.758
  H     -432.918    1074.755    -344.233
  P     -433.997    1076.386    -346.304
  C     -435.459    1075.918    -348.395
  O     -434.343    1076.608    -347.854
  C     -435.436    1075.956    -349.915
  O     -435.718    1077.284    -350.390
  C     -434.085    1075.602    -350.548
  O     -433.880    1074.195    -350.581
  C     -434.262    1076.180    -351.945
  O     -435.033    1075.263    -352.761
  C     -435.073    1077.453    -351.680
  N     -433.071    1081.264    -354.487
  C     -433.834    1080.179    -354.828
  N     -434.315    1079.210    -354.042
  C     -433.965    1079.420    -352.769
  C     -433.188    1080.461    -352.263
  C     -432.726    1081.408    -353.187
  N     -431.949    1082.485    -352.837
  N     -433.046    1080.360    -350.894
  C     -433.713    1079.279    -350.560
  N     -434.282    1078.669    -351.664
  O     -432.518    1076.975    -346.166
  O     -434.938    1077.050    -345.344
  H     -435.955    1075.310    -352.430
  H     -432.558    1077.838    -345.726
  H     -434.070    1080.114    -355.901
  H     -433.821    1078.888    -349.566
  H     -435.874    1077.579    -352.414
  H     -433.320    1076.346    -352.467
  H     -433.254    1076.122    -350.029
  H     -436.219    1075.286    -350.298
  H     -436.391    1076.379    -348.044
  H     -431.809    1083.234    -353.507
  H     -431.691    1082.599    -351.853
  H     -435.429    1074.883    -348.044
  P     -432.663    1073.596    -349.707
  C     -432.183    1072.132    -351.794
  O     -432.305    1072.192    -350.367
  O     -433.388    1073.187    -348.329
  O     -431.533    1074.537    -349.472
  H     -432.736    1073.194    -347.603
  H     -431.941    1071.132    -352.090
  H     -431.407    1072.796    -352.114
  H     -433.109    1072.423    -352.244

 6  7  8  9  10  11  12  13  14  15  25  28  32  33  34  35 0
 6-311+G(2d,p)
 ****
 36  39  40 0
 6-311+G(2d,p)
 ****
 1  2  3  4  5  16  17  18  19  20  21  22  23  24 0
 3-21G
 ****
 26  27  29  30  31  37  38  41  42  43  44  45  46  47  48 0
 3-21G
 ****


