%nproc=1
%NoSave
%Mem=1900MB
#P OB98/GEN NMR

erre ene a

0 1
  C     -325.001     -74.816    -292.885
  O     -323.806     -75.518    -293.169
  H     -325.685     -75.488    -292.363
  H     -325.474     -74.484    -293.814
  H     -324.790     -73.958    -292.242
  P     -322.674     -74.712    -293.971
  C     -322.395     -76.560    -295.762
  O     -322.813     -75.230    -295.483
  C     -322.256     -76.772    -297.269
  O     -323.542     -76.681    -297.903
  C     -321.363     -75.754    -297.965
  O     -319.998     -76.128    -297.846
  C     -321.848     -75.878    -299.400
  O     -321.231     -77.025    -300.022
  C     -323.356     -76.124    -299.231
  N     -327.735     -74.258    -301.154
  C     -327.101     -75.435    -301.347
  N     -325.915     -75.844    -300.848
  C     -325.376     -74.892    -300.064
  C     -325.906     -73.644    -299.776
  C     -327.148     -73.336    -300.356
  N     -327.793     -72.133    -300.158
  N     -325.071     -72.936    -298.941
  C     -324.083     -73.770    -298.677
  N     -324.201     -74.952    -299.362
  O     -321.304     -74.759    -293.381
  O     -323.333     -73.252    -294.044
  H     -320.266     -76.883    -299.976
  H     -324.287     -73.318    -294.224
  H     -327.613     -76.144    -301.990
  H     -323.269     -73.571    -297.984
  H     -323.730     -76.859    -299.951
  H     -321.589     -75.010    -300.009
  H     -321.548     -74.736    -297.609
  H     -321.882     -77.794    -297.431
  H     -323.116     -77.277    -295.354
  H     -328.574     -71.924    -300.760
  H     -327.290     -71.404    -299.672
  H     -321.434     -76.719    -295.264
  P     -318.822     -75.088    -298.182
  C     -318.011     -76.658    -300.049
  O     -318.466     -75.351    -299.722
  O     -317.674     -75.126    -297.234
  O     -319.551     -73.666    -298.217
  H     -318.892     -72.950    -298.152
  H     -317.806     -76.712    -301.098
  H     -318.766     -77.372    -299.795
  H     -317.118     -76.873    -299.500

 6  7  8  9  10  11  12  13  14  15  25  28  32  33  34  35 0
 6-311+G(2d,p)
 ****
 36  39  40 0
 6-311+G(2d,p)
 ****
 1  2  3  4  5  16  17  18  19  20  21  22  23  24 0
 3-21G
 ****
 26  27  29  30  31  37  38  41  42  43  44  45  46  47 0
 3-21G
 ****
 48 0
 3-21G
 ****


