%nproc=1
%NoSave
%Mem=1900MB
#P OB98/GEN NMR

erre ene a

0 1
  C      444.039     325.610     442.421
  O      443.644     325.267     441.108
  H      445.120     325.771     442.430
  H      443.805     324.795     443.110
  H      443.546     326.530     442.746
  P      442.084     325.075     440.794
  C      442.168     327.403     439.706
  O      441.469     326.544     440.594
  C      441.270     328.553     439.250
  O      440.142     328.000     438.521
  C      440.720     329.398     440.404
  O      440.687     330.761     439.989
  C      439.302     328.879     440.573
  O      438.433     329.860     441.136
  C      438.938     328.493     439.142
  N      433.950     327.735     439.421
  C      434.674     328.911     439.402
  N      433.971     330.059     439.499
  N      435.977     328.958     439.301
  C      436.553     327.733     439.198
  C      435.944     326.501     439.206
  C      434.507     326.465     439.329
  O      433.813     325.452     439.366
  N      436.872     325.495     439.108
  C      438.035     326.115     439.045
  N      437.896     327.479     439.107
  O      441.337     324.217     441.764
  O      442.059     324.462     439.318
  H      438.471     330.648     440.553
  H      441.921     323.495     439.347
  H      432.950     327.757     439.509
  H      439.001     325.636     438.962
  H      438.570     329.347     438.556
  H      439.304     328.002     441.228
  H      432.966     330.102     439.561
  H      441.305     329.297     441.325
  H      434.480     330.936     439.464
  H      441.835     329.172     438.542
  H      442.486     326.811     438.839
  H      443.060     327.797     440.208
  P      441.554     331.839     440.807
  C      442.238     333.123     438.679
  O      442.692     332.407     439.826
  O      442.032     331.398     442.148
  O      440.547     333.082     440.927
  H      440.749     333.566     441.753
  H      443.080     333.450     438.106
  H      441.668     333.973     438.992
  H      441.625     332.484     438.079

 6  7  8  9  10  11  12  13  14  15  26  29  33  34 0
 6-311+G(2d,p)
 ****
 36  38  39  40  41 0
 6-311+G(2d,p)
 ****
 1  2  3  4  5  16  17  18  19  20  21  22  23  24  25 0
 3-21G
 ****
 27  28  30  31  32  35  37  42  43  44  45  46  47 0
 3-21G
 ****
 48  49 0
 3-21G
 ****


