%nproc=1
%NoSave
%Mem=1900MB
#P OB98/GEN NMR

erre ene a

0 1
  C      157.981     -76.833     -56.244
  O      158.316     -75.927     -55.192
  P      158.547     -76.578     -53.743
  C      160.983     -76.048     -53.023
  O      159.616     -75.673     -52.959
  C      161.859     -75.029     -52.292
  O      162.160     -73.880     -53.106
  C      161.220     -74.485     -51.022
  O      161.369     -75.417     -49.966
  C      162.008     -73.201     -50.804
  O      163.249     -73.458     -50.116
  C      162.280     -72.723     -52.239
  N      159.935     -70.790     -56.294
  C      160.861     -71.812     -56.211
  N      161.189     -72.423     -57.368
  N      161.412     -72.202     -55.091
  C      160.988     -71.503     -54.012
  C      160.058     -70.491     -53.965
  C      159.457     -70.067     -55.211
  O      158.617     -69.184     -55.335
  N      159.842     -70.068     -52.678
  C      160.733     -70.737     -51.969
  N      161.409     -71.666     -52.721
  O      159.344     -77.927     -54.068
  O      157.279     -76.852     -53.005
  H      163.054     -73.822     -49.234
  H      158.771     -78.699     -53.900
  H      159.549     -70.526     -57.184
  H      160.910     -70.604     -50.913
  H      163.305     -72.346     -52.349
  H      161.458     -72.485     -50.187
  H      160.801     -72.175     -58.266
  H      160.163     -74.252     -51.202
  H      161.860     -73.180     -57.328
  H      162.806     -75.527     -52.047
  H      161.301     -76.127     -54.065
  H      161.095     -77.046     -52.584
  P      160.145     -76.407     -49.661
  C      161.380     -78.483     -48.715
  O      160.581     -77.349     -48.445
  O      160.147     -77.386     -50.928
  O      158.825     -75.729     -49.508
  H      159.232     -77.515     -51.243
  H      161.999     -78.694     -47.840
  H      162.030     -78.323     -49.580
  H      160.732     -79.343     -48.906
  H      157.852     -76.289     -57.156
  H      157.072     -77.342     -56.001
  H      158.768     -77.548     -56.364

 3  4  5  6  7  8  9  10  11  12  23  26  30  31 0
 6-311+G(2d,p)
 ****
 33  35  36  37  38 0
 6-311+G(2d,p)
 ****
 1  2  13  14  15  16  17  18  19  20  21  22  24  25 0
 3-21G
 ****
 27  28  29  32  34  39  40  41  42  43  44  45  46  47  48  49 0
 3-21G
 ****


