%nproc=1
%NoSave
%Mem=1900MB
#P OB98/GEN NMR

erre ene a

0 1
  C     -361.857     176.898    -360.762
  O     -362.851     176.178    -361.498
  P     -363.837     176.881    -362.549
  C     -363.791     175.448    -364.695
  O     -364.487     175.762    -363.499
  C     -364.349     174.193    -365.370
  O     -363.989     173.010    -364.627
  C     -365.873     174.156    -365.486
  O     -366.334     175.005    -366.517
  C     -366.109     172.667    -365.725
  O     -365.920     172.332    -367.109
  C     -365.020     172.021    -364.851
  N     -365.538     171.510    -363.590
  C     -366.517     170.510    -363.678
  O     -366.949     170.160    -364.783
  N     -367.017     169.972    -362.517
  C     -366.622     170.432    -361.370
  N     -367.141     169.847    -360.261
  C     -365.649     171.533    -361.233
  C     -365.156     172.017    -362.373
  O     -363.222     178.020    -363.291
  O     -365.082     177.387    -361.667
  H     -366.082     171.373    -367.186
  H     -365.449     178.194    -362.077
  H     -365.369     171.906    -360.260
  H     -364.437     172.824    -362.360
  H     -364.529     171.197    -365.391
  H     -367.120     172.356    -365.452
  H     -366.317     174.438    -364.519
  H     -363.896     174.118    -366.368
  H     -367.796     169.089    -360.384
  H     -362.730     175.279    -364.444
  H     -366.897     170.124    -359.310
  H     -363.849     176.305    -365.376
  P     -367.106     176.361    -366.141
  C     -365.734     177.291    -368.106
  O     -366.956     177.353    -367.392
  O     -366.770     176.956    -364.814
  O     -368.649     175.945    -366.206
  H     -369.148     176.478    -365.557
  H     -365.895     177.691    -369.116
  H     -365.367     176.263    -368.170
  H     -364.984     177.905    -367.603
  H     -361.324     176.222    -360.127
  H     -362.330     177.650    -360.165
  H     -361.174     177.361    -361.443

 3  4  5  6  7  8  9  10  11  12  13  23  27  28  29  30  32 0
 6-311+G(2d,p)
 ****
 34  35 0
 6-311+G(2d,p)
 ****
 1  2  14  15  16  17  18  19  20  21  22  24  25  26 0
 3-21G
 ****
 31  33  36  37  38  39  40  41  42  43  44  45  46 0
 3-21G
 ****


