%nproc=1
%NoSave
%Mem=1900MB
#P OB98/GEN NMR

erre ene a

0 1
  C       98.403    -247.225     -71.393
  O       98.435    -247.180     -69.963
  P       98.522    -245.715     -69.304
  C      100.926    -245.438     -70.239
  O       99.626    -244.875     -70.114
  C      102.018    -244.398     -69.960
  O      102.151    -243.469     -71.076
  C      101.759    -243.551     -68.705
  O      103.038    -243.268     -68.116
  C      101.189    -242.269     -69.280
  O      101.275    -241.191     -68.350
  C      102.053    -242.132     -70.534
  N      100.869    -237.302     -71.426
  C      101.311    -237.908     -70.266
  N      101.511    -237.102     -69.201
  N      101.534    -239.195     -70.159
  C      101.324    -239.869     -71.320
  C      100.905    -239.378     -72.537
  C      100.632    -237.961     -72.628
  O      100.247    -237.371     -73.633
  N      100.841    -240.378     -73.489
  C      101.160    -241.470     -72.816
  N      101.514    -241.213     -71.516
  O       99.212    -245.994     -67.887
  O       97.194    -245.044     -69.154
  H      102.225    -240.976     -68.233
  H       98.538    -246.006     -67.181
  H      100.697    -236.309     -71.444
  H      101.175    -242.469     -73.228
  H      103.066    -241.778     -70.302
  H      100.132    -242.406     -69.546
  H      101.413    -236.098     -69.225
  H      101.098    -244.019     -67.969
  H      101.879    -237.518     -68.345
  H      102.978    -244.927     -69.854
  H      101.065    -245.839     -71.247
  H      101.012    -246.293     -69.557
  P      103.387    -243.957     -66.710
  C      102.217    -242.053     -65.398
  O      102.302    -243.440     -65.651
  O      104.731    -243.209     -66.262
  O      103.595    -245.439     -66.773
  H      105.336    -243.848     -65.837
  H      101.205    -241.817     -65.062
  H      102.435    -241.462     -66.295
  H      102.923    -241.781     -64.608
  H       98.345    -248.243     -71.717
  H       99.292    -246.776     -71.784
  H       97.548    -246.689     -71.748

 3  4  5  6  7  8  9  10  11  12  23  26  30  31 0
 6-311+G(2d,p)
 ****
 33  35  36  37  38 0
 6-311+G(2d,p)
 ****
 1  2  13  14  15  16  17  18  19  20  21  22  24  25 0
 3-21G
 ****
 27  28  29  32  34  39  40  41  42  43  44  45  46  47  48  49 0
 3-21G
 ****


