%nproc=1
%NoSave
%Mem=1900MB
#P OB98/GEN NMR

erre ene a

0 1
  C     -885.076     399.302    -444.932
  O     -885.874     398.142    -444.813
  H     -885.599     400.010    -445.585
  H     -884.116     399.057    -445.396
  H     -884.920     399.768    -443.959
  P     -885.377     396.970    -443.822
  C     -887.539     396.453    -442.521
  O     -886.267     397.086    -442.494
  C     -888.627     397.418    -442.049
  O     -888.563     398.633    -442.846
  C     -890.042     396.854    -442.184
  O     -890.821     397.282    -441.063
  C     -890.577     397.508    -443.446
  O     -891.998     397.610    -443.454
  C     -889.862     398.862    -443.426
  N     -892.436     400.958    -447.236
  C     -892.856     400.555    -445.980
  N     -894.173     400.714    -445.707
  N     -892.062     400.038    -445.073
  C     -890.775     399.952    -445.478
  C     -890.232     400.306    -446.683
  C     -891.123     400.854    -447.684
  O     -890.801     401.215    -448.816
  N     -888.884     400.023    -446.722
  C     -888.620     399.509    -445.537
  N     -889.735     399.438    -444.752
  O     -883.906     396.917    -443.586
  O     -885.916     395.635    -444.511
  H     -892.258     397.976    -442.584
  H     -885.208     395.182    -445.005
  H     -893.080     401.323    -447.899
  H     -887.646     399.168    -445.213
  H     -890.389     399.601    -442.803
  H     -890.265     396.922    -444.321
  H     -894.832     401.114    -446.349
  H     -890.067     395.765    -442.241
  H     -894.506     400.452    -444.782
  H     -888.418     397.700    -441.009
  H     -887.499     395.584    -441.867
  H     -887.753     396.122    -443.539
  P     -890.342     396.873    -439.582
  C     -890.079     399.246    -438.605
  O     -889.414     398.059    -439.013
  O     -889.782     395.504    -439.439
  O     -891.686     397.053    -438.716
  H     -891.660     396.416    -437.985
  H     -889.360     399.953    -438.249
  H     -890.771     399.016    -437.822
  H     -890.607     399.663    -439.437

 6  7  8  9  10  11  12  13  14  15  26  29  33  34 0
 6-311+G(2d,p)
 ****
 36  38  39  40  41 0
 6-311+G(2d,p)
 ****
 1  2  3  4  5  16  17  18  19  20  21  22  23  24  25 0
 3-21G
 ****
 27  28  30  31  32  35  37  42  43  44  45  46  47 0
 3-21G
 ****
 48  49 0
 3-21G
 ****


