%nproc=1
%NoSave
%Mem=1900MB
#P OB98/GEN NMR

erre ene a

0 1
  C       40.108     226.406    -176.196
  O       40.121     226.361    -177.609
  H       41.138     226.369    -175.833
  H       39.566     225.542    -175.806
  H       39.643     227.331    -175.840
  P       38.751     226.735    -178.358
  C       36.491     225.526    -178.770
  O       37.825     225.424    -178.295
  C       35.634     224.409    -178.184
  O       35.696     224.428    -176.743
  C       34.155     224.493    -178.550
  O       33.898     223.922    -179.827
  C       33.541     223.650    -177.443
  O       33.744     222.250    -177.730
  C       34.385     224.062    -176.227
  N       31.102     225.460    -172.622
  C       31.325     224.217    -173.183
  N       30.559     223.204    -172.722
  N       32.216     223.985    -174.112
  C       32.891     225.097    -174.494
  C       32.755     226.382    -174.017
  C       31.779     226.619    -172.978
  O       31.551     227.700    -172.440
  N       33.613     227.245    -174.645
  C       34.252     226.489    -175.515
  N       33.849     225.176    -175.464
  O       39.201     226.811    -179.894
  O       38.111     228.008    -177.915
  H       34.680     222.052    -177.547
  H       39.288     227.749    -180.151
  H       30.398     225.584    -171.916
  H       35.018     226.836    -176.196
  H       34.528     223.235    -175.524
  H       32.465     223.802    -177.344
  H       29.841     223.316    -172.025
  H       33.777     225.521    -178.482
  H       30.710     222.282    -173.118
  H       36.059     223.451    -178.515
  H       36.495     225.448    -179.862
  H       36.084     226.501    -178.480
  P       32.572     224.375    -180.608
  C       30.033     223.948    -180.295
  O       31.322     223.940    -179.697
  O       32.520     223.345    -181.833
  O       32.564     225.787    -181.083
  H       32.690     223.818    -182.672
  H       29.304     223.638    -179.575
  H       30.021     223.275    -181.127
  H       29.803     224.937    -180.633

 6  7  8  9  10  11  12  13  14  15  26  29  33  34 0
 6-311+G(2d,p)
 ****
 36  38  39  40  41 0
 6-311+G(2d,p)
 ****
 1  2  3  4  5  16  17  18  19  20  21  22  23  24  25 0
 3-21G
 ****
 27  28  30  31  32  35  37  42  43  44  45  46  47 0
 3-21G
 ****
 48  49 0
 3-21G
 ****


