%nproc=1
%NoSave
%Mem=1900MB
#P OB98/GEN NMR

erre ene a

0 1
  C      255.655    -295.684      33.865
  O      257.016    -295.442      34.153
  H      255.490    -295.676      32.786
  H      255.380    -296.667      34.256
  H      255.028    -294.927      34.344
  P      257.632    -294.057      33.626
  C      257.236    -292.601      35.736
  O      256.856    -292.877      34.394
  C      256.714    -291.228      36.152
  O      255.264    -291.266      36.131
  C      257.159    -290.772      37.553
  O      257.856    -289.524      37.468
  C      255.857    -290.544      38.307
  O      255.885    -289.385      39.138
  C      254.822    -290.419      37.198
  N      251.009    -289.182      40.346
  C      252.002    -288.438      39.808
  N      252.923    -288.803      38.893
  C      252.733    -290.077      38.511
  C      251.753    -290.950      38.949
  C      250.871    -290.462      39.928
  N      249.895    -291.237      40.516
  N      251.883    -292.184      38.335
  C      252.949    -292.067      37.570
  N      253.507    -290.819      37.659
  O      257.079    -293.957      32.126
  O      259.121    -293.968      33.674
  H      255.945    -288.616      38.542
  H      257.811    -293.728      31.522
  H      252.070    -287.416      40.168
  H      253.386    -292.858      36.973
  H      254.754    -289.394      36.812
  H      255.658    -291.418      38.941
  H      257.784    -291.512      38.060
  H      257.028    -290.497      35.397
  H      258.329    -292.603      35.813
  H      249.386    -290.842      41.290
  H      249.858    -292.221      40.290
  H      256.838    -293.384      36.387
  P      259.454    -289.580      37.658
  C      260.056    -290.517      35.308
  O      260.009    -290.747      36.708
  O      259.617    -290.192      39.129
  O      260.125    -288.255      37.523
  H      260.460    -289.895      39.522
  H      260.447    -291.384      34.817
  H      260.687    -289.677      35.106
  H      259.069    -290.317      34.946

 6  7  8  9  10  11  12  13  14  15  25  28  32  33  34  35 0
 6-311+G(2d,p)
 ****
 36  39  40 0
 6-311+G(2d,p)
 ****
 1  2  3  4  5  16  17  18  19  20  21  22  23  24 0
 3-21G
 ****
 26  27  29  30  31  37  38  41  42  43  44  45  46  47  48 0
 3-21G
 ****


