%nproc=1
%NoSave
%Mem=1900MB
#P OB98/GEN NMR

erre ene a

0 1
  C      450.336     170.122    -365.828
  O      449.250     170.386    -364.950
  P      449.385     169.878    -363.433
  C      447.915     170.104    -361.306
  O      448.134     170.507    -362.654
  C      446.585     170.646    -360.789
  O      446.610     172.081    -360.801
  C      445.378     170.255    -361.632
  O      444.926     168.941    -361.328
  C      444.364     171.299    -361.189
  O      443.758     170.892    -359.947
  C      445.243     172.543    -360.971
  N      443.390     176.955    -362.639
  C      443.216     176.319    -361.419
  N      442.461     176.971    -360.509
  N      443.732     175.156    -361.130
  C      444.495     174.644    -362.120
  C      444.742     175.173    -363.369
  C      444.128     176.437    -363.701
  O      444.193     177.011    -364.782
  N      445.581     174.365    -364.098
  C      445.874     173.371    -363.279
  N      445.210     173.478    -362.078
  O      450.627     170.727    -362.875
  O      449.597     168.410    -363.271
  H      443.131     170.174    -360.162
  H      451.055     170.246    -362.136
  H      442.991     177.854    -362.808
  H      446.546     172.558    -363.512
  H      444.962     173.075    -360.055
  H      443.551     171.438    -361.908
  H      442.149     177.921    -360.632
  H      445.587     170.370    -362.705
  H      442.349     176.539    -359.599
  H      446.461     170.311    -359.754
  H      448.725     170.495    -360.676
  H      447.934     169.009    -361.254
  P      444.084     168.189    -362.473
  C      444.299     165.839    -363.565
  O      444.627     166.683    -362.478
  O      444.667     168.813    -363.827
  O      442.604     168.358    -362.358
  H      443.997     168.761    -364.538
  H      444.279     166.391    -364.508
  H      443.324     165.381    -363.393
  H      445.051     165.049    -363.640
  H      450.113     170.513    -366.799
  H      450.491     169.065    -365.896
  H      451.222     170.589    -365.450

 3  4  5  6  7  8  9  10  11  12  23  26  30  31  33  0
 6-311+G(2d,p)
 ****
 35  36  37  38 0
 6-311+G(2d,p)
 ****
 1  2  13  14  15  16  17  18  19  20  21  22  24  25  27  28  29 0
 3-21G
 ****
 32  34  39  40  41  42  43  44  45  46  47  48  49 0
 3-21G
 ****


