%nproc=1
%NoSave
%Mem=1900MB
#P OB98/GEN NMR

erre ene a

0 1
  C     -627.436       9.343    -572.074
  O     -628.449      10.094    -571.441
  H     -627.548       8.296    -571.777
  H     -626.448       9.692    -571.772
  H     -627.535       9.408    -573.164
  P     -628.511      11.676    -571.715
  C     -628.603      11.711    -569.125
  O     -628.111      12.335    -570.303
  C     -627.863      12.237    -567.897
  O     -626.492      11.799    -567.893
  C     -627.780      13.762    -567.804
  O     -629.011      14.372    -567.432
  C     -626.720      13.894    -566.725
  O     -627.294      13.597    -565.434
  C     -625.716      12.797    -567.155
  N     -624.631      13.320    -567.982
  C     -623.552      13.893    -567.306
  O     -623.539      13.951    -566.076
  N     -622.508      14.416    -568.042
  C     -622.561      14.392    -569.332
  N     -621.512      14.932    -570.014
  C     -623.695      13.817    -570.092
  C     -624.677      13.308    -569.361
  O     -629.774      12.193    -572.328
  O     -627.205      11.982    -572.589
  H     -627.959      14.289    -565.260
  H     -627.197      12.954    -572.798
  H     -623.699      13.852    -571.175
  H     -625.546      12.868    -569.847
  H     -625.290      12.289    -566.279
  H     -626.292      14.893    -566.669
  H     -627.390      14.190    -568.730
  H     -628.344      11.800    -567.010
  H     -620.751      15.323    -569.474
  H     -628.473      10.629    -569.234
  H     -621.504      15.039    -571.023
  H     -629.671      11.922    -569.001
  P     -629.568      15.513    -568.420
  C     -629.786      16.872    -566.192
  O     -629.512      16.884    -567.589
  O     -631.123      15.167    -568.515
  O     -628.894      15.583    -569.759
  H     -631.311      14.679    -569.345
  H     -629.704      17.866    -565.804
  H     -629.083      16.236    -565.696
  H     -630.777      16.505    -566.026

 6  7  8  9  10  11  12  13  14  15  16  26  30  31  32  33  35 0
 6-311+G(2d,p)
 ****
 37  38 0
 6-311+G(2d,p)
 ****
 1  2  3  4  5  17  18  19  20  21  22  23  24  25 0
 3-21G
 ****
 27  28  29  34  36  39  40  41  42  43  44  45  46 0
 3-21G
 ****


