%nproc=1
%NoSave
%Mem=1900MB
#P OB98/GEN NMR

erre ene a

0 1
  C     -881.495      -8.611    -128.053
  O     -880.919      -8.356    -129.319
  H     -881.311      -9.660    -127.790
  H     -882.577      -8.445    -128.083
  H     -881.040      -7.976    -127.287
  P     -881.104      -6.870    -129.896
  C     -882.626      -7.984    -131.688
  O     -882.446      -6.898    -130.784
  C     -883.968      -7.871    -132.400
  O     -885.057      -8.093    -131.469
  C     -884.220      -6.518    -133.062
  O     -883.602      -6.442    -134.324
  C     -885.744      -6.506    -133.145
  O     -886.215      -7.269    -134.278
  C     -886.144      -7.195    -131.823
  N     -889.305      -5.998    -128.076
  C     -889.346      -7.055    -128.974
  N     -890.410      -7.887    -128.882
  N     -888.422      -7.267    -129.871
  C     -887.440      -6.340    -129.859
  C     -887.285      -5.253    -129.023
  C     -888.295      -5.051    -128.007
  O     -888.302      -4.167    -127.146
  N     -886.153      -4.552    -129.311
  C     -885.633      -5.180    -130.357
  N     -886.392      -6.263    -130.730
  O     -879.942      -6.751    -130.994
  O     -881.028      -5.776    -128.887
  H     -887.185      -7.192    -134.334
  H     -879.653      -5.817    -131.045
  H     -890.040      -5.893    -127.392
  H     -884.723      -4.900    -130.861
  H     -887.044      -7.798    -131.936
  H     -886.134      -5.498    -133.263
  H     -891.280      -7.584    -128.456
  H     -883.889      -5.702    -132.402
  H     -890.453      -8.648    -129.541
  H     -884.012      -8.679    -133.152
  H     -882.595      -8.928    -131.122
  H     -881.808      -7.981    -132.417
  P     -883.448      -4.989    -135.007
  C     -884.866      -5.641    -137.101
  O     -884.731      -4.797    -135.948
  O     -882.253      -5.188    -136.053
  O     -883.194      -3.882    -134.031
  H     -881.906      -4.317    -136.308
  H     -885.767      -5.392    -137.622
  H     -884.905      -6.664    -136.791
  H     -884.027      -5.496    -137.749

 6  7  8  9  10  11  12  13  14  15  26  29  33  34 0
 6-311+G(2d,p)
 ****
 36  38  39  40  41 0
 6-311+G(2d,p)
 ****
 1  2  3  4  5  16  17  18  19  20  21  22  23  24  25 0
 3-21G
 ****
 27  28  30  31  32  35  37  42  43  44  45  46  47 0
 3-21G
 ****
 48  49 0
 3-21G
 ****


