%nproc=1
%NoSave
%Mem=1900MB
#P OB98/GEN NMR

erre ene a

0 1
  C      -41.024      49.510    -896.790
  O      -40.905      50.904    -896.570
  P      -41.418      51.888    -897.730
  C      -43.897      52.089    -896.970
  O      -42.634      52.717    -897.100
  C      -44.652      52.658    -895.760
  O      -44.182      52.056    -894.530
  C      -44.483      54.161    -895.590
  O      -45.314      54.858    -896.510
  C      -44.915      54.329    -894.120
  O      -46.331      54.491    -894.020
  C      -44.438      53.014    -893.480
  N      -43.292      53.176    -892.600
  C      -43.504      52.927    -891.250
  O      -44.624      52.602    -890.850
  N      -42.461      53.088    -890.370
  C      -41.303      53.487    -890.810
  N      -40.297      53.623    -889.920
  C      -41.030      53.777    -892.240
  C      -42.062      53.627    -893.070
  O      -42.165      50.898    -898.750
  O      -40.356      52.692    -898.390
  H      -46.496      54.844    -893.110
  H      -42.154      51.250    -899.660
  H      -40.046      54.108    -892.560
  H      -41.956      53.821    -894.140
  H      -45.257      52.564    -892.880
  H      -44.462      55.212    -893.670
  H      -43.450      54.451    -895.700
  H      -45.723      52.395    -895.870
  H      -40.510      53.430    -888.920
  H      -43.752      51.007    -896.790
  H      -39.353      53.909    -890.140
  H      -44.471      52.218    -897.880
  P      -44.988      56.401    -896.750
  C      -43.664      56.006    -898.910
  O      -44.851      56.559    -898.340
  O      -43.471      56.511    -896.260
  O      -45.878      57.405    -896.070
  H      -43.183      57.457    -896.260
  H      -43.764      56.017    -900.000
  H      -43.527      54.965    -898.610
  H      -42.800      56.598    -898.620
  H      -40.646      48.981    -895.940
  H      -40.463      49.237    -897.659
  H      -42.054      49.259    -896.937

 3  4  5  6  7  8  9  10  11  12  13  21  23  27  28  29  30  32 0
 6-311+G(2d,p)
 ****
 34  35 0
 6-311+G(2d,p)
 ****
 1  2  14  15  16  17  18  19  20  22  24  25  26 0
 3-21G
 ****
 31  33  36  37  38  39  40  41  42  43  44  45  46 0
 3-21G
 ****


