%nproc=1
%NoSave
%Mem=1900MB
#P OB98/GEN NMR

erre ene a

0 1
  C       83.972     277.285    -351.896
  O       85.365     277.194    -351.678
  H       83.732     278.299    -352.222
  H       83.432     277.073    -350.970
  H       83.663     276.580    -352.674
  P       85.926     275.760    -351.229
  C       86.982     275.267    -353.561
  O       86.034     274.891    -352.572
  C       86.712     274.512    -354.869
  O       86.629     273.084    -354.572
  C       85.388     274.909    -355.545
  O       85.537     274.740    -356.966
  C       84.440     273.848    -355.014
  O       83.269     273.796    -355.797
  C       85.354     272.629    -355.074
  N       82.917     268.158    -355.296
  C       83.336     269.003    -356.259
  N       83.989     270.175    -356.120
  C       84.226     270.430    -354.821
  C       83.857     269.667    -353.729
  C       83.161     268.476    -354.004
  N       82.710     267.622    -353.023
  N       84.254     270.277    -352.551
  C       84.859     271.384    -352.933
  N       84.865     271.518    -354.291
  O       84.686     275.109    -350.453
  O       87.161     275.782    -350.394
  H       83.483     273.777    -356.751
  H       84.755     275.299    -349.500
  H       83.119     268.701    -357.281
  H       85.294     272.125    -352.270
  H       85.506     272.271    -356.099
  H       84.138     274.066    -353.985
  H       85.078     275.932    -355.324
  H       87.564     274.646    -355.546
  H       87.985     275.027    -353.191
  H       86.912     276.343    -353.741
  H       82.196     266.802    -353.307
  H       82.855     267.863    -352.055
  P       85.469     276.037    -357.915
  C       87.990     276.656    -357.634
  O       86.636     277.071    -357.532
  O       84.163     276.786    -357.361
  O       85.323     275.759    -359.374
  H       83.607     277.076    -358.109
  H       88.633     277.461    -357.343
  H       88.202     276.377    -358.645
  H       88.155     275.817    -356.990

 6  7  8  9  10  11  12  13  14  15  25  28  32  33  34  35 0
 6-311+G(2d,p)
 ****
 36  37  40 0
 6-311+G(2d,p)
 ****
 1  2  3  4  5  16  17  18  19  20  21  22  23  24 0
 3-21G
 ****
 26  27  29  30  31  38  39 41  42  43  44  45  46  47  48 0
 3-21G
 ****


