%nproc=1
%NoSave
%Mem=1900MB
#P OB98/GEN NMR

erre ene a

0 1
  C      997.312     513.444     537.282
  O      997.883     512.259     537.781
  H      997.422     514.230     538.030
  H      996.248     513.299     537.075
  H      997.820     513.774     536.367
  P      998.016     511.039     536.741
  C     1000.529     511.459     536.223
  O      999.560     510.582     536.769
  C     1001.702     511.630     537.208
  O     1001.279     512.443     538.338
  C     1002.231     510.322     537.779
  O     1003.134     509.695     536.918
  C     1002.928     510.851     539.033
  O     1004.212     511.430     538.651
  C     1001.969     511.922     539.508
  N     1001.099     510.583     544.330
  C     1002.270     511.018     543.727
  N     1003.368     511.064     544.502
  N     1002.349     511.334     542.443
  C     1001.179     511.222     541.793
  C      999.950     510.817     542.292
  C      999.869     510.468     543.682
  O      998.872     510.111     544.276
  N      998.992     510.831     541.319
  C      999.632     511.236     540.216
  N     1000.967     511.454     540.460
  O      997.865     511.748     535.305
  O      997.011     509.942     536.904
  H     1004.036     512.051     537.930
  H      997.390     511.151     534.709
  H     1001.088     510.339     545.296
  H      999.172     511.358     539.257
  H     1002.482     512.779     539.973
  H     1003.161     510.067     539.750
  H     1003.371     510.768     545.487
  H     1001.394     509.656     538.097
  H     1004.238     511.389     544.079
  H     1002.500     512.175     536.679
  H     1000.068     512.429     536.029
  H     1000.890     511.043     535.273
  P     1003.193     508.063     536.949
  C     1002.119     507.493     534.638
  O     1003.329     507.611     535.402
  O     1001.698     507.671     537.333
  O     1004.200     507.500     537.877
  H     1001.693     506.777     537.738
  H     1002.356     507.189     533.640
  H     1001.619     508.439     534.614
  H     1001.481     506.763     535.091

 6  7  8  9  10  11  12  13  14  15  26  29  33  34 0
 6-311+G(2d,p)
 ****
 36  38  39  40  41 0
 6-311+G(2d,p)
 ****
 1  2  3  4  5  16  17  18  19  20  21  22  23  24  25 0
 3-21G
 ****
 27  28  30  31  32  35  37  42  43  44  45  46  47 0
 3-21G
 ****
 48  49 0
 3-21G
 ****


