%nproc=1
%NoSave
%Mem=1900MB
#P OB98/GEN NMR

erre ene a

0 1
  C      -29.974    -243.840     -89.441
  O      -29.987    -243.534     -90.825
  P      -31.123    -244.202     -91.737
  C      -31.418    -246.540     -92.829
  O      -30.873    -245.789     -91.754
  C      -30.971    -248.001     -92.755
  O      -31.307    -248.547     -91.453
  C      -31.628    -248.897     -93.809
  O      -30.700    -249.917     -94.211
  C      -32.746    -249.578     -93.045
  O      -33.129    -250.808     -93.661
  C      -32.098    -249.733     -91.669
  N      -35.039    -253.054     -89.247
  C      -33.971    -253.281     -90.090
  N      -33.709    -254.571     -90.395
  N      -33.222    -252.331     -90.587
  C      -33.608    -251.090     -90.201
  C      -34.638    -250.739     -89.356
  C      -35.465    -251.800     -88.827
  O      -36.442    -251.663     -88.097
  N      -34.697    -249.382     -89.174
  C      -33.734    -248.904     -89.938
  N      -33.068    -249.899     -90.607
  O      -30.709    -243.742     -93.216
  O      -32.513    -243.776     -91.415
  H      -32.337    -251.378     -93.667
  H      -31.312    -243.040     -93.523
  H      -35.593    -253.818     -88.901
  H      -33.495    -247.858     -90.060
  H      -31.418    -250.594     -91.639
  H      -33.626    -248.927     -93.005
  H      -34.288    -255.343     -90.100
  H      -31.989    -248.367     -94.697
  H      -32.958    -254.761     -91.046
  H      -29.879    -248.036     -92.845
  H      -31.081    -246.110     -93.771
  H      -32.512    -246.480     -92.799
  P      -31.072    -250.716     -95.553
  C      -33.098    -252.185     -96.269
  O      -32.416    -251.521     -95.225
  O      -29.952    -251.857     -95.625
  O      -31.102    -249.869     -96.782
  H      -29.816    -252.140     -96.548
  H      -33.095    -253.259     -96.066
  H      -32.637    -252.008     -97.245
  H      -34.131    -251.832     -96.300
  H      -29.165    -243.323     -88.969
  H      -29.849    -244.895     -89.310
  H      -30.899    -243.533     -88.999

 3  4  5  6  7  8  9  10  11  12  23  26  30  31 0
 6-311+G(2d,p)
 ****
 33  35  36  37  38 0
 6-311+G(2d,p)
 ****
 1  2  13  14  15  16  17  18  19  20  21  22  24  25 0
 3-21G
 ****
 27  28  29  32  34  39  40  41  42  43  44  45  46  47  48  49 0
 3-21G
 ****


