%nproc=1
%NoSave
%Mem=1900MB
#P OB98/GEN NMR

erre ene a

0 1
  C       -8.463     -56.132     119.919
  O       -8.415     -54.730     119.751
  H       -7.456     -56.538     119.794
  H       -9.118     -56.577     119.166
  H       -8.825     -56.385     120.920
  P       -9.773     -53.918     120.007
  C       -9.952     -53.186     122.500
  O       -9.463     -52.888     121.201
  C       -8.870     -52.893     123.541
  O       -7.670     -53.630     123.182
  C       -8.490     -51.409     123.619
  O       -8.211     -51.070     124.981
  C       -7.216     -51.332     122.797
  O       -6.389     -50.225     123.126
  C       -6.579     -52.688     123.120
  N       -5.596     -53.098     122.120
  C       -4.281     -53.262     122.544
  O       -3.902     -53.159     123.710
  N       -3.375     -53.558     121.558
  C       -3.642     -53.678     120.226
  O       -2.783     -53.922     119.388
  C       -5.048     -53.486     119.838
  C       -5.944     -53.208     120.788
  O      -10.727     -55.001     120.699
  O      -10.391     -53.295     118.801
  H      -11.244     -55.481     120.024
  H       -6.319     -50.179     124.102
  H       -2.417     -53.682     121.848
  H       -5.298     -53.565     118.788
  H       -6.986     -53.046     120.533
  H       -6.111     -52.663     124.112
  H       -7.462     -51.265     121.731
  H       -9.267     -50.750     123.227
  H       -9.201     -53.269     124.516
  H      -10.220     -54.247     122.549
  H      -10.843     -52.582     122.699
  P       -9.129     -49.944     125.665
  C      -10.985     -51.425     126.758
  O       -9.814     -50.648     126.936
  O      -10.310     -49.807     124.598
  O       -8.385     -48.683     125.954
  H      -10.561     -50.653     124.188
  H      -11.301     -51.815     127.703
  H      -10.778     -52.234     126.089
  H      -11.760     -50.813     126.347

 6  7  8  9  10  11  12  13  14  15  16  27  31  32  33  34  35 0
 6-311+G(2d,p)
 ****
 36  37 0
 6-311+G(2d,p)
 ****
 1  2  3  4  5  17  18  19  20  21  22  23  24  25 0
 3-21G
 ****
 26  28  29  30  38  39  40  41  42  43  44  45 0
 3-21G
 ****


