%nproc=1
%NoSave
%Mem=1900MB
#P OB98/GEN NMR

erre ene a

0 1
  C     -627.215      -0.121    -403.941
  O     -625.816       0.019    -404.136
  P     -625.117       0.308    -405.547
  C     -623.059      -1.320    -405.616
  O     -623.553      -0.004    -405.402
  C     -621.643      -1.541    -405.041
  O     -620.808      -0.400    -405.368
  C     -621.695      -1.611    -403.514
  O     -622.023      -2.833    -402.869
  C     -620.386      -0.997    -403.058
  O     -619.367      -1.982    -402.836
  C     -619.993      -0.083    -404.222
  N     -618.002       4.615    -404.573
  C     -617.487       3.418    -405.021
  N     -616.260       3.456    -405.589
  N     -618.109       2.275    -404.901
  C     -619.283       2.362    -404.231
  C     -619.891       3.487    -403.724
  C     -619.218       4.753    -403.914
  O     -619.632       5.850    -403.547
  N     -621.064       3.185    -403.089
  C     -621.161       1.870    -403.195
  N     -620.100       1.324    -403.885
  O     -625.491       1.591    -406.202
  O     -625.661      -0.893    -406.473
  H     -618.514      -1.523    -402.774
  H     -625.727      -0.534    -407.385
  H     -617.491       5.473    -404.712
  H     -621.973       1.278    -402.789
  H     -618.951      -0.254    -404.528
  H     -620.513      -0.468    -402.104
  H     -615.684       4.279    -405.607
  H     -622.477      -0.910    -403.181
  H     -615.791       2.557    -405.722
  H     -621.163      -2.408    -405.500
  H     -623.059      -1.488    -406.701
  H     -623.745      -2.055    -405.193
  P     -623.373      -3.149    -402.072
  C     -622.692      -4.337    -399.901
  O     -623.143      -4.497    -401.234
  O     -624.396      -3.619    -403.215
  O     -623.940      -2.007    -401.294
  H     -625.311      -3.595    -402.882
  H     -622.289      -5.280    -399.543
  H     -623.536      -4.046    -399.270
  H     -621.915      -3.568    -399.841
  H     -627.414      -0.309    -402.907
  H     -627.577      -0.939    -404.528
  H     -627.709       0.779    -404.241

 3  4  5  6  7  8  9  10  11  12  23  26  30  31 0
 6-311+G(2d,p)
 ****
 33  35  36  37  38 0
 6-311+G(2d,p)
 ****
 1  2  13  14  15  16  17  18  19  20  21  22  24  25 0
 3-21G
 ****
 27  28  29  32  34  39  40  41  42  43  44  45  46  47  48  49 0
 3-21G
 ****


