%nproc=1
%NoSave
%Mem=1900MB
#P OB98/GEN NMR

erre ene a

0 1
  C     -892.420      28.844    1671.924
  O     -892.620      28.829    1673.326
  H     -892.980      28.004    1671.486
  H     -891.370      28.732    1671.690
  H     -892.810      29.773    1671.491
  P     -892.080      30.056    1674.192
  C     -894.420      30.906    1674.863
  O     -893.220      31.193    1674.162
  C     -895.600      31.681    1674.248
  O     -895.890      31.132    1672.934
  C     -896.900      31.612    1675.071
  O     -897.620      32.822    1674.841
  C     -897.590      30.424    1674.404
  O     -898.940      30.295    1674.790
  C     -897.290      30.761    1672.936
  N     -897.530      29.670    1671.993
  C     -898.870      29.421    1671.627
  O     -899.830      30.039    1672.069
  N     -899.040      28.389    1670.756
  C     -898.060      27.624    1670.186
  O     -898.300      26.726    1669.380
  C     -896.700      27.933    1670.603
  C     -896.490      28.927    1671.474
  O     -890.710      30.548    1673.852
  O     -892.160      29.522    1675.703
  H     -891.260      29.252    1676.001
  H     -899.280      29.445    1674.464
  H     -900.000      28.181    1670.484
  H     -895.900      27.333    1670.179
  H     -895.480      29.195    1671.793
  H     -897.860      31.639    1672.618
  H     -897.100      29.487    1674.714
  H     -896.730      31.490    1676.147
  H     -895.290      32.726    1674.090
  H     -894.280      31.220    1675.907
  H     -894.630      29.833    1674.827
  P     -897.770      33.981    1675.933
  C     -896.780      36.068    1674.726
  O     -896.570      35.053    1675.702
  O     -897.850      33.490    1677.338
  O     -899.090      34.795    1675.524
  H     -899.470      35.223    1676.319
  H     -895.918      36.700    1674.677
  H     -897.635      36.652    1674.997
  H     -896.945      35.615    1673.771

 6  7  8  9  10  11  12  13  14  15  16  27  31  32  33  34  35 0
 6-311+G(2d,p)
 ****
 36  37 0
 6-311+G(2d,p)
 ****
 1  2  3  4  5  17  18  19  20  21  22  23  24  25 0
 3-21G
 ****
 26  28  29  30  38  39  40  41  42  43  44  45 0
 3-21G
 ****


