%nproc=1
%NoSave
%Mem=1900MB
#P OB98/GEN NMR

erre ene a

0 1
  C     -411.166      -4.069     -11.402
  O     -409.936      -4.766     -11.383
  H     -411.243      -3.468     -10.493
  H     -411.995      -4.781     -11.426
  H     -411.219      -3.406     -12.271
  P     -409.525      -5.524     -12.735
  C     -407.636      -3.840     -13.422
  O     -408.895      -4.423     -13.724
  C     -407.208      -2.898     -14.544
  O     -406.000      -2.197     -14.194
  C     -406.854      -3.600     -15.845
  O     -407.988      -4.095     -16.524
  C     -406.144      -2.473     -16.587
  O     -407.074      -1.616     -17.261
  C     -405.435      -1.717     -15.435
  N     -403.995      -1.884     -15.491
  C     -403.270      -0.723     -15.801
  O     -403.858       0.343     -15.980
  N     -401.909      -0.817     -15.928
  C     -401.323      -1.965     -15.792
  N     -399.976      -1.995     -15.965
  C     -402.052      -3.210     -15.472
  C     -403.373      -3.099     -15.336
  O     -410.947      -5.843     -13.398
  O     -408.660      -6.722     -12.542
  H     -407.454      -2.144     -17.995
  H     -411.543      -5.074     -13.430
  H     -401.516      -4.142     -15.353
  H     -403.987      -3.961     -15.100
  H     -405.660      -0.642     -15.488
  H     -405.462      -2.859     -17.348
  H     -406.123      -4.395     -15.657
  H     -408.010      -2.161     -14.694
  H     -399.524      -1.128     -16.240
  H     -406.878      -4.616     -13.268
  H     -399.427      -2.841     -15.962
  H     -407.742      -3.290     -12.480
  P     -407.847      -5.171     -17.702
  C     -408.616      -7.042     -16.102
  O     -407.601      -6.596     -16.999
  O     -406.859      -4.833     -18.764
  O     -409.352      -5.322     -18.233
  H     -409.993      -5.621     -17.567
  H     -408.343      -7.995     -15.699
  H     -409.544      -7.130     -16.628
  H     -408.723      -6.336     -15.305

 6  7  8  9  10  11  12  13  14  15  16  26  30  31  32  33  35 0
 6-311+G(2d,p)
 ****
 37  38 0
 6-311+G(2d,p)
 ****
 1  2  3  4  5  17  18  19  20  21  22  23  24  25 0
 3-21G
 ****
 27  28  29  34  36  39  40  41  42  43  44  45  46 0
 3-21G
 ****


