%nproc=1
%NoSave
%Mem=1900MB
#P OB98/GEN NMR

erre ene a

0 1
  C       97.773     191.677      -3.248
  O       97.921     192.544      -4.361
  P       97.275     194.010      -4.254
  C       96.221     193.513      -6.581
  O       96.034     194.033      -5.270
  C       95.040     192.632      -6.975
  O       94.843     191.579      -6.008
  C       93.707     193.368      -7.039
  O       93.538     194.074      -8.257
  C       92.727     192.207      -6.959
  O       92.598     191.581      -8.248
  C       93.428     191.263      -5.972
  N       90.703     189.055      -2.322
  C       91.165     188.538      -3.518
  N       90.798     187.270      -3.805
  N       91.922     189.198      -4.354
  C       92.203     190.461      -3.939
  C       91.806     191.083      -2.774
  C       90.957     190.341      -1.863
  O       90.475     190.762      -0.818
  N       92.295     192.361      -2.699
  C       92.989     192.512      -3.811
  N       92.928     191.403      -4.615
  O       98.358     194.944      -4.976
  O       96.979     194.461      -2.861
  H       92.201     192.244      -8.843
  H       98.206     195.878      -4.732
  H       90.118     188.507      -1.716
  H       93.536     193.408      -4.080
  H       93.322     190.214      -6.266
  H       91.724     192.517      -6.652
  H       90.165     186.729      -3.234
  H       93.569     194.023      -6.168
  H       91.070     186.888      -4.703
  H       95.270     192.165      -7.941
  H       97.141     192.925      -6.605
  H       96.324     194.346      -7.288
  P       93.553     195.678      -8.175
  C       91.066     196.017      -8.840
  O       92.048     196.099      -7.823
  O       93.734     196.120      -9.701
  O       94.616     196.241      -7.291
  H       94.158     196.993      -9.754
  H       90.073     196.080      -8.375
  H       91.138     195.076      -9.387
  H       91.180     196.857      -9.535
  H       98.249     190.742      -3.458
  H       96.733     191.513      -3.059
  H       98.226     192.122      -2.387

 3  4  5  6  7  8  9  10  11  12  23  26  30  31 0
 6-311+G(2d,p)
 ****
 33  35  36  37  38 0
 6-311+G(2d,p)
 ****
 1  2  13  14  15  16  17  18  19  20  21  22  24  25 0
 3-21G
 ****
 27  28  29  32  34  39  40  41  42  43  44  45  46  47  48  49 0
 3-21G
 ****


