%nproc=1
%NoSave
%Mem=1900MB
#P OB98/GEN NMR

erre ene a

0 1
  C     -185.644    -115.511    -216.539
  O     -186.668    -115.187    -217.485
  P     -187.698    -116.352    -217.884
  C     -189.670    -115.931    -216.208
  O     -189.154    -115.783    -217.522
  C     -191.197    -115.992    -216.249
  O     -191.741    -116.065    -214.909
  C     -191.850    -114.774    -216.888
  O     -191.707    -114.790    -218.299
  C     -193.281    -114.921    -216.383
  O     -193.995    -115.876    -217.183
  C     -193.064    -115.478    -214.962
  N     -193.248    -114.477    -213.920
  C     -194.462    -114.521    -213.242
  O     -195.348    -115.333    -213.504
  N     -194.631    -113.585    -212.258
  C     -193.738    -112.612    -211.916
  O     -193.943    -111.807    -211.016
  C     -192.496    -112.583    -212.699
  C     -192.306    -113.502    -213.652
  O     -187.400    -117.432    -216.742
  O     -187.518    -116.839    -219.280
  H     -187.180    -117.028    -215.884
  H     -194.944    -115.749    -216.982
  H     -195.500    -113.610    -211.743
  H     -191.773    -111.809    -212.471
  H     -191.397    -113.494    -214.242
  H     -193.766    -116.301    -214.767
  H     -193.836    -113.979    -216.424
  H     -191.405    -113.858    -216.478
  H     -191.485    -116.903    -216.788
  H     -189.361    -115.082    -215.587
  H     -189.250    -116.837    -215.763
  P     -191.263    -113.412    -218.995
  C     -189.219    -114.351    -220.327
  O     -190.520    -113.811    -220.360
  O     -190.075    -112.943    -218.029
  O     -192.375    -112.424    -219.134
  H     -189.473    -113.665    -217.791
  H     -189.029    -114.871    -221.273
  H     -189.099    -115.064    -219.506
  H     -188.490    -113.542    -220.221
  H     -185.033    -114.650    -216.366
  H     -185.040    -116.305    -216.925
  H     -186.094    -115.821    -215.619

 3  4  5  6  7  8  9  10  11  12  13  24  28  29  30  31  32 0
 6-311+G(2d,p)
 ****
 33  34 0
 6-311+G(2d,p)
 ****
 1  2  14  15  16  17  18  19  20  21  22  23  25  26  27 0
 3-21G
 ****
 35  36  37  38  39  40  41  42  43  44  45 0
 3-21G
 ****


