%nproc=1
%NoSave
%Mem=1900MB
#P OB98/GEN NMR

erre ene a

0 1
  C     -100.201      95.525      53.485
  O      -99.935      94.147      53.358
  H      -99.247      96.062      53.502
  H     -100.730      95.734      54.418
  H     -100.787      95.882      52.634
  P     -101.149      93.104      53.499
  C     -100.862      92.312      55.922
  O     -100.626      92.002      54.554
  C     -100.682      91.083      56.815
  O     -101.773      90.154      56.591
  C      -99.372      90.326      56.567
  O      -98.751      90.028      57.820
  C      -99.821      89.044      55.882
  O      -98.883      87.986      56.051
  C     -101.198      88.835      56.521
  N     -102.043      87.916      55.768
  C     -102.101      86.599      56.233
  O     -101.431      86.256      57.210
  N     -102.882      85.693      55.564
  C     -103.509      86.054      54.490
  N     -104.258      85.106      53.865
  C     -103.439      87.421      53.935
  C     -102.702      88.293      54.621
  O     -101.647      92.548      52.207
  O     -102.264      93.894      54.329
  H      -99.181      87.217      55.516
  H     -103.143      93.463      54.191
  H     -103.972      87.671      53.030
  H     -102.600      89.322      54.293
  H     -101.097      88.453      57.546
  H      -99.936      89.226      54.805
  H      -98.664      90.877      55.954
  H     -100.764      91.403      57.860
  H     -104.281      84.182      54.279
  H     -101.878      92.708      56.021
  H     -104.784      85.272      53.020
  H     -100.145      93.082      56.227
  P      -97.808      91.175      58.431
  C      -95.728      89.631      58.427
  O      -96.590      90.459      59.194
  O      -98.697      91.784      59.614
  O      -97.415      92.219      57.439
  H      -99.115      92.617      59.326
  H      -94.968      89.223      59.061
  H      -95.272      90.211      57.652
  H      -96.294      88.835      57.990

 6  7  8  9  10  11  12  13  14  15  16  26  30  31  32  33  35 0
 6-311+G(2d,p)
 ****
 37  38 0
 6-311+G(2d,p)
 ****
 1  2  3  4  5  17  18  19  20  21  22  23  24  25 0
 3-21G
 ****
 27  28  29  34  36  39  40  41  42  43  44  45  46 0
 3-21G
 ****


