%nproc=1
%NoSave
%Mem=1900MB
#P OB98/GEN NMR

erre ene a

0 1
  C      127.240     294.038     408.459
  O      126.483     295.159     408.857
  H      128.011     293.844     409.210
  H      127.728     294.246     407.499
  H      126.614     293.146     408.364
  P      125.041     295.388     408.208
  C      124.382     295.739     405.735
  O      125.236     296.137     406.800
  C      124.724     296.463     404.431
  O      126.128     296.269     404.120
  C      123.934     295.926     403.240
  O      122.662     296.542     403.055
  C      124.865     296.247     402.070
  O      124.636     297.570     401.558
  C      126.265     296.153     402.698
  N      129.655     293.807     399.673
  C      129.111     295.069     399.546
  N      129.494     295.772     398.461
  N      128.257     295.572     400.400
  C      127.893     294.713     401.386
  C      128.355     293.436     401.601
  C      129.346     292.904     400.693
  O      129.875     291.800     400.769
  N      127.724     292.845     402.679
  C      126.831     293.744     403.050
  N      126.955     294.922     402.351
  O      124.395     296.535     409.124
  O      124.151     294.180     408.178
  H      124.812     298.210     402.280
  H      123.429     296.417     409.165
  H      130.324     293.477     399.003
  H      126.108     293.613     403.853
  H      126.909     296.980     402.373
  H      124.705     295.550     401.241
  H      130.078     295.395     397.724
  H      123.821     294.838     403.297
  H      128.976     296.618     398.228
  H      124.577     297.541     404.567
  H      123.367     295.980     406.045
  H      124.432     294.655     405.595
  P      121.491     295.772     402.289
  C      121.429     294.452     400.021
  O      121.951     295.517     400.787
  O      120.355     296.905     402.141
  O      120.973     294.547     402.970
  H      119.681     296.796     402.839
  H      121.871     294.464     399.046
  H      120.368     294.562     399.933
  H      121.652     293.523     400.503

 6  7  8  9  10  11  12  13  14  15  26  29  33  34 0
 6-311+G(2d,p)
 ****
 36  38  39  40  41 0
 6-311+G(2d,p)
 ****
 1  2  3  4  5  16  17  18  19  20  21  22  23  24  25 0
 3-21G
 ****
 27  28  30  31  32  35  37  42  43  44  45  46  47 0
 3-21G
 ****
 48  49 0
 3-21G
 ****


