%nproc=1
%NoSave
%Mem=1900MB
#P OB98/GEN NMR

erre ene a

0 1
  C      280.689    -243.153     219.714
  O      280.112    -242.423     220.776
  H      280.549    -242.592     218.789
  H      280.190    -244.119     219.615
  H      281.760    -243.302     219.872
  P      280.424    -242.872     222.283
  C      280.546    -240.331     222.709
  O      280.125    -241.593     223.207
  C      279.912    -239.190     223.510
  O      278.463    -239.289     223.402
  C      280.263    -239.211     225.006
  O      280.268    -237.853     225.462
  C      279.077    -239.956     225.591
  O      278.976    -239.758     226.981
  C      277.937    -239.393     224.737
  N      276.734    -240.218     224.794
  C      275.869    -239.991     225.862
  O      276.094    -239.162     226.742
  N      274.753    -240.777     225.908
  C      274.454    -241.790     225.045
  O      273.455    -242.489     225.156
  C      275.425    -242.018     223.965
  C      276.505    -241.234     223.886
  O      281.754    -243.507     222.508
  O      279.221    -243.859     222.659
  H      278.197    -240.240     227.337
  H      279.524    -244.528     223.304
  H      274.111    -240.614     226.667
  H      275.225    -242.824     223.268
  H      277.237    -241.377     223.101
  H      277.666    -238.381     225.073
  H      279.180    -241.033     225.422
  H      281.218    -239.689     225.221
  H      280.203    -238.236     223.051
  H      280.238    -240.262     221.659
  H      281.637    -240.261     222.763
  P      281.562    -236.912     225.329
  C      280.763    -234.919     226.756
  O      281.679    -236.007     226.650
  O      281.627    -236.140     224.051
  O      282.806    -237.908     225.451
  H      283.570    -237.545     224.963
  H      280.937    -234.394     227.672
  H      279.761    -235.294     226.745
  H      280.903    -234.253     225.931

 6  7  8  9  10  11  12  13  14  15  16  26  31  32  33  34  35 0
 6-311+G(2d,p)
 ****
 36  37 0
 6-311+G(2d,p)
 ****
 1  2  3  4  5  17  18  19  20  21  22  23  24  25 0
 3-21G
 ****
 27  28  29  30  38  39  40  41  42  43  44  45 0
 3-21G
 ****


