%nproc=1
%NoSave
%Mem=1900MB
#P OB98/GEN NMR

erre ene a

0 1
  C      184.881      39.662     -80.204
  O      184.495      38.931     -81.352
  H      185.310      38.966     -79.475
  H      184.015      40.151     -79.749
  H      185.636      40.408     -80.463
  P      183.762      39.712     -82.543
  C      184.382      41.690     -84.094
  O      184.704      40.955     -82.916
  C      184.898      43.125     -83.990
  O      184.232      43.820     -82.918
  C      186.391      43.231     -83.687
  O      187.155      42.932     -84.840
  C      186.475      44.666     -83.199
  O      186.461      45.589     -84.301
  C      185.169      44.781     -82.372
  N      185.362      44.563     -80.943
  C      184.332      45.013     -80.108
  O      183.342      45.570     -80.585
  N      184.464      44.832     -78.751
  C      185.504      44.220     -78.271
  N      185.570      44.069     -76.923
  C      186.593      43.701     -79.124
  C      186.464      43.912     -80.431
  O      182.326      40.071     -82.311
  O      183.932      38.740     -83.804
  H      187.249      45.381     -84.839
  H      183.151      38.163     -83.898
  H      187.437      43.189     -78.682
  H      187.222      43.562     -81.126
  H      184.718      45.774     -82.508
  H      187.387      44.857     -82.633
  H      186.655      42.567     -82.858
  H      184.651      43.644     -84.925
  H      184.787      44.428     -76.382
  H      183.290      41.690     -84.185
  H      186.243      43.475     -76.458
  H      184.803      41.202     -84.980
  P      188.705      42.535     -84.740
  C      189.972      40.555     -83.696
  O      188.776      41.318     -83.690
  O      189.633      43.666     -84.455
  O      188.996      41.806     -86.136
  H      189.094      42.474     -86.861
  H      189.904      39.780     -82.962
  H      190.802      41.191     -83.468
  H      190.112      40.119     -84.663

 6  7  8  9  10  11  12  13  14  15  16  26  30  31  32  33  35 0
 6-311+G(2d,p)
 ****
 37  38 0
 6-311+G(2d,p)
 ****
 1  2  3  4  5  17  18  19  20  21  22  23  24  25 0
 3-21G
 ****
 27  28  29  34  36  39  40  41  42  43  44  45  46 0
 3-21G
 ****


