%nproc=1
%NoSave
%Mem=1900MB
#P OB98/GEN NMR

erre ene a

0 1
  C       32.301     656.598      78.365
  O       32.258     657.634      77.406
  H       33.156     655.953      78.141
  H       31.396     655.990      78.312
  H       32.424     657.007      79.372
  P       31.068     658.712      77.471
  C       30.328     658.207      75.063
  O       30.850     659.191      75.947
  C       30.774     658.467      73.623
  O       32.085     657.882      73.402
  C       29.825     657.878      72.566
  O       29.552     658.851      71.550
  C       30.623     656.728      71.964
  O       30.209     656.392      70.645
  C       32.053     657.275      72.095
  N       33.052     656.226      71.946
  C       33.902     656.346      70.839
  O       33.789     657.300      70.072
  N       34.827     655.358      70.603
  C       34.862     654.312      71.379
  N       35.785     653.356      71.074
  C       33.961     654.135      72.540
  C       33.091     655.118      72.761
  O       31.276     659.815      78.456
  O       29.748     657.853      77.756
  H       29.227     656.316      70.639
  H       29.064     658.438      78.153
  H       34.031     653.244      73.143
  H       32.386     655.075      73.594
  H       32.246     658.059      71.353
  H       30.502     655.833      72.593
  H       28.873     657.532      72.981
  H       30.894     659.550      73.484
  H       36.375     653.523      70.268
  H       29.234     658.216      75.131
  H       35.887     652.497      71.580
  H       30.698     657.223      75.378
  P       28.026     659.311      71.386
  C       27.571     659.082      68.842
  O       27.856     659.959      69.927
  O       27.905     660.561      72.382
  O       27.046     658.236      71.725
  H       27.345     660.319      73.150
  H       27.485     659.649      67.938
  H       26.651     658.569      69.030
  H       28.363     658.369      68.742

 6  7  8  9  10  11  12  13  14  15  16  26  30  31  32  33  35 0
 6-311+G(2d,p)
 ****
 37  38 0
 6-311+G(2d,p)
 ****
 1  2  3  4  5  17  18  19  20  21  22  23  24  25 0
 3-21G
 ****
 27  28  29  34  36  39  40  41  42  43  44  45  46 0
 3-21G
 ****


