%nproc=1
%NoSave
%Mem=1900MB
#P OB98/GEN NMR

erre ene a

0 1
  C     1582.935    -221.162     247.187
  O     1583.157    -220.003     246.379
  P     1583.692    -218.612     246.999
  C     1581.331    -217.575     247.018
  O     1582.660    -217.521     246.481
  C     1580.927    -216.189     247.534
  O     1581.831    -215.800     248.589
  C     1580.984    -215.063     246.504
  O     1579.833    -214.936     245.678
  C     1581.049    -213.846     247.450
  O     1579.733    -213.540     247.949
  C     1581.974    -214.367     248.552
  N     1585.400    -210.572     248.885
  C     1584.082    -210.641     249.224
  N     1583.236    -211.672     249.072
  C     1583.876    -212.746     248.594
  C     1585.215    -212.845     248.237
  C     1586.004    -211.705     248.402
  N     1587.353    -211.638     248.098
  N     1585.522    -214.131     247.758
  C     1584.374    -214.797     247.868
  N     1583.357    -213.988     248.348
  O     1585.144    -218.360     246.774
  O     1583.330    -218.753     248.561
  H     1579.261    -213.106     247.234
  H     1583.847    -218.081     249.074
  H     1583.648    -209.724     249.597
  H     1584.237    -215.810     247.563
  H     1581.673    -213.983     249.552
  H     1581.414    -212.944     246.923
  H     1581.900    -215.093     245.914
  H     1579.915    -216.268     247.966
  H     1581.336    -218.282     247.863
  H     1587.860    -210.803     248.384
  H     1587.827    -212.518     247.889
  H     1580.657    -217.940     246.260
  P     1579.925    -215.519     244.197
  C     1581.536    -213.590     243.405
  O     1580.281    -214.261     243.250
  O     1578.750    -216.334     243.765
  O     1581.306    -216.352     244.222
  H     1582.110    -215.819     244.339
  H     1581.637    -212.890     242.578
  H     1582.349    -214.320     243.371
  H     1581.539    -213.058     244.351
  H     1582.583    -221.964     246.572
  H     1582.204    -220.940     247.936
  H     1583.852    -221.450     247.658

 3  4  5  6  7  8  9  10  11  12  22  25  29  30  31  32 0
 6-311+G(2d,p)
 ****
 33  36  37 0
 6-311+G(2d,p)
 ****
 1  2  13  14  15  16  17  18  19  20  21  23  24  26 0
 3-21G
 ****
 27  28  34  35  38  39  40  41  42  43  44  45  46  47  48 0
 3-21G
 ****


