%nproc=1
%NoSave
%Mem=1900MB
#P OB98/GEN NMR

erre ene a

0 1
  C      296.833      38.822    1597.309
  O      296.847      37.414    1597.005
  P      298.167      36.633    1596.569
  C      298.467      35.107    1598.637
  O      298.986      36.194    1597.885
  C      299.401      34.740    1599.821
  O      300.679      34.286    1599.333
  C      299.716      35.897    1600.757
  O      298.606      36.172    1601.610
  C      300.945      35.361    1601.469
  O      300.600      34.473    1602.541
  C      301.669      34.599    1600.334
  N      302.779      35.351    1599.772
  C      304.059      35.035    1600.257
  O      304.195      34.215    1601.160
  N      305.145      35.693    1599.711
  C      304.955      36.611    1598.830
  N      306.074      37.222    1598.322
  C      303.619      37.036    1598.359
  C      302.582      36.365    1598.846
  O      299.006      37.350    1595.540
  O      297.664      35.224    1595.987
  H      300.064      33.763    1602.132
  H      298.289      34.933    1595.295
  H      303.517      37.846    1597.639
  H      301.573      36.597    1598.557
  H      302.035      33.631    1600.702
  H      301.569      36.167    1601.915
  H      299.983      36.809    1600.174
  H      298.933      33.912    1600.365
  H      306.964      36.905    1598.675
  H      298.385      34.244    1597.982
  H      306.047      37.952    1597.621
  H      297.475      35.363    1598.995
  P      298.123      37.692    1601.847
  C      295.727      37.238    1601.010
  O      296.935      37.980    1600.811
  O      299.229      38.718    1601.841
  O      297.382      37.657    1603.261
  H      297.512      38.515    1603.702
  H      294.904      37.782    1600.559
  H      295.545      37.098    1602.080
  H      295.839      36.265    1600.517
  H      295.840      39.120    1597.575
  H      297.153      39.375    1596.451
  H      297.495      39.017    1598.127

 3  4  5  6  7  8  9  10  11  12  13  23  27  28  29  30  32 0
 6-311+G(2d,p)
 ****
 34  35 0
 6-311+G(2d,p)
 ****
 1  2  14  15  16  17  18  19  20  21  22  24  25  26 0
 3-21G
 ****
 31  33  36  37  38  39  40  41  42  43  44  45  46 0
 3-21G
 ****


