%nproc=1
%NoSave
%Mem=1900MB
#P OB98/GEN NMR

erre ene a

0 1
  C      -33.580    -247.538     -29.434
  O      -34.549    -248.562     -29.188
  P      -35.862    -248.720     -30.098
  C      -36.147    -251.270     -30.193
  O      -36.675    -250.047     -29.690
  C      -35.029    -251.852     -29.316
  O      -35.440    -251.913     -27.922
  C      -34.573    -253.266     -29.702
  O      -33.187    -253.341     -29.363
  C      -35.398    -254.133     -28.766
  O      -34.882    -255.446     -28.607
  C      -35.361    -253.288     -27.497
  N      -36.967    -256.495     -23.842
  C      -35.759    -256.330     -24.425
  N      -35.400    -255.431     -25.363
  C      -36.426    -254.617     -25.666
  C      -37.710    -254.660     -25.148
  C      -37.973    -255.665     -24.199
  N      -39.213    -255.869     -23.638
  N      -38.503    -253.684     -25.724
  C      -37.709    -253.075     -26.581
  N      -36.442    -253.599     -26.580
  O      -35.609    -248.593     -31.566
  O      -36.825    -247.536     -29.609
  H      -34.001    -255.381     -28.197
  H      -37.199    -247.085     -30.390
  H      -34.980    -257.015     -24.099
  H      -38.001    -252.265     -27.237
  H      -34.414    -253.417     -26.959
  H      -36.417    -254.224     -29.163
  H      -34.733    -253.504     -30.756
  H      -34.182    -251.156     -29.361
  H      -35.759    -251.091     -31.202
  H      -39.326    -256.671     -23.040
  H      -40.003    -255.345     -23.985
  H      -36.964    -251.997     -30.274
  P      -32.041    -252.977     -30.422
  C      -30.461    -251.509     -29.046
  O      -30.686    -252.796     -29.589
  O      -32.368    -251.844     -31.337
  O      -31.797    -254.337     -31.234
  H      -31.349    -254.135     -32.077
  H      -30.132    -250.828     -29.838
  H      -29.680    -251.573     -28.285
  H      -31.372    -251.113     -28.585
  H      -32.791    -247.613     -28.715
  H      -34.046    -246.579     -29.352
  H      -33.178    -247.657     -30.418

 3  4  5  6  7  8  9  10  11  12  22  25  29  30  31  32 0
 6-311+G(2d,p)
 ****
 33  36  37 0
 6-311+G(2d,p)
 ****
 1  2  13  14  15  16  17  18  19  20  21  23  24  26 0
 3-21G
 ****
 27  28  34  35  38  39  40  41  42  43  44  45  46  47  48 0
 3-21G
 ****


