%nproc=1
%NoSave
%Mem=1900MB
#P OB98/GEN NMR

erre ene a

0 1
  C      -72.510      -7.552      77.369
  O      -72.744      -7.234      75.991
  P      -73.234      -8.410      75.019
  C      -72.269     -10.637      74.078
  O      -72.044      -9.473      74.861
  C      -71.009     -11.006      73.290
  O      -70.649      -9.977      72.345
  C      -69.777     -11.201      74.161
  O      -69.748     -12.497      74.741
  C      -68.664     -11.057      73.136
  O      -68.514     -12.288      72.401
  C      -69.208      -9.956      72.218
  N      -65.276      -6.696      71.829
  C      -65.432      -7.975      71.418
  N      -66.502      -8.783      71.575
  C      -67.490      -8.142      72.219
  C      -67.477      -6.843      72.698
  C      -66.303      -6.103      72.482
  N      -66.151      -4.801      72.900
  N      -68.671      -6.536      73.316
  C      -69.399      -7.628      73.199
  N      -68.726      -8.628      72.551
  O      -73.281      -7.698      73.586
  O      -74.561      -8.987      75.387
  H      -67.977     -12.085      71.613
  H      -74.014      -8.066      73.058
  H      -64.585      -8.407      70.894
  H      -70.412      -7.739      73.561
  H      -68.966     -10.135      71.164
  H      -67.695     -10.841      73.594
  H      -69.700     -10.408      74.916
  H      -71.216     -11.929      72.732
  H      -73.105     -10.472      73.393
  H      -65.291      -4.325      72.685
  H      -66.922      -4.346      73.368
  H      -72.571     -11.456      74.739
  P      -70.235     -12.633      76.263
  C      -68.985     -12.307      78.517
  O      -69.079     -11.966      77.148
  O      -70.091     -14.201      76.548
  O      -71.621     -12.142      76.513
  H      -70.756     -14.484      77.205
  H      -67.996     -12.021      78.883
  H      -69.116     -13.382      78.666
  H      -69.744     -11.762      79.086
  H      -72.190      -6.673      77.889
  H      -71.751      -8.303      77.438
  H      -73.414      -7.917      77.809

 3  4  5  6  7  8  9  10  11  12  22  25  29  30  31  32 0
 6-311+G(2d,p)
 ****
 33  36  37 0
 6-311+G(2d,p)
 ****
 1  2  13  14  15  16  17  18  19  20  21  23  24  26 0
 3-21G
 ****
 27  28  34  35  38  39  40  41  42  43  44  45  46  47  48 0
 3-21G
 ****


