%nproc=1
%NoSave
%Mem=1900MB
#P OB98/GEN NMR

erre ene a

0 1
  C     -282.744    -123.954     286.417
  O     -282.185    -123.456     287.645
  P     -280.875    -124.163     288.248
  C     -281.415    -125.067     290.637
  O     -280.851    -124.031     289.847
  C     -282.741    -124.627     291.276
  O     -282.500    -123.581     292.261
  C     -283.772    -124.075     290.279
  O     -285.071    -124.427     290.778
  C     -283.561    -122.576     290.387
  O     -284.667    -121.818     289.916
  C     -283.309    -122.443     291.893
  N     -282.657    -121.193     292.286
  C     -283.433    -120.039     292.319
  O     -284.614    -119.986     291.982
  N     -282.789    -118.901     292.736
  C     -281.469    -118.799     293.072
  O     -280.945    -117.744     293.408
  C     -280.695    -120.046     292.989
  C     -281.315    -121.164     292.609
  O     -279.717    -123.143     287.810
  O     -280.582    -125.529     287.720
  H     -284.448    -120.879     290.037
  H     -278.962    -123.642     287.443
  H     -283.340    -118.058     292.779
  H     -279.645    -120.008     293.255
  H     -280.764    -122.095     292.554
  H     -284.258    -122.544     292.434
  H     -282.684    -122.289     289.797
  H     -283.636    -124.459     289.265
  H     -283.157    -125.484     291.818
  H     -280.712    -125.338     291.429
  H     -281.576    -125.950     290.004
  P     -285.646    -125.891     290.439
  C     -287.732    -124.888     289.216
  O     -287.227    -125.739     290.224
  O     -285.538    -126.582     291.885
  O     -284.893    -126.625     289.379
  H     -285.863    -126.007     292.599
  H     -287.145    -124.968     288.296
  H     -287.717    -123.856     289.567
  H     -288.762    -125.178     288.999
  H     -283.606    -123.376     286.157
  H     -283.026    -124.978     286.543
  H     -282.015    -123.878     285.637

 3  4  5  6  7  8  9  10  11  12  13  23  28  29  30  31  32 0
 6-311+G(2d,p)
 ****
 33  34 0
 6-311+G(2d,p)
 ****
 1  2  14  15  16  17  18  19  20  21  22  24  25  26 0
 3-21G
 ****
 27  35  36  37  38  39  40  41  42  43  44  45 0
 3-21G
 ****


