%nproc=1
%NoSave
%Mem=1900MB
#P OB98/GEN NMR

erre ene a

0 1
  C      104.079      30.860    -182.139
  O      104.888      29.699    -182.127
  H      103.178      30.658    -182.728
  H      104.623      31.689    -182.603
  H      103.783      31.135    -181.121
  P      106.139      29.714    -181.126
  C      107.851      30.321    -183.023
  O      107.259      30.672    -181.776
  C      109.362      30.531    -182.968
  O      109.677      31.925    -182.790
  C      110.044      29.852    -181.791
  O      110.121      28.448    -181.938
  C      111.403      30.544    -181.815
  O      112.298      29.916    -182.739
  C      111.037      31.971    -182.285
  N      111.205      32.949    -181.227
  C      112.525      33.164    -180.810
  O      113.456      32.556    -181.351
  N      112.758      34.030    -179.774
  C      111.758      34.615    -179.183
  N      112.054      35.430    -178.141
  C      110.349      34.415    -179.589
  C      110.148      33.578    -180.611
  O      106.753      28.248    -181.320
  O      105.807      30.053    -179.713
  H      113.187      30.292    -182.563
  H      106.878      27.996    -182.253
  H      109.556      34.932    -179.072
  H      109.145      33.376    -180.972
  H      111.672      32.269    -183.134
  H      111.886      30.512    -180.830
  H      109.537      30.126    -180.851
  H      109.792      30.199    -183.924
  H      113.025      35.495    -177.858
  H      107.414      30.913    -183.838
  H      111.355      35.874    -177.557
  H      107.619      29.269    -183.219
  P      110.148      27.477    -180.662
  C      112.721      27.645    -180.667
  O      111.534      27.772    -179.895
  O      109.902      26.039    -180.951
  O      109.075      28.144    -179.674
  H      109.274      29.059    -179.409
  H      113.570      27.864    -180.054
  H      112.688      28.330    -181.488
  H      112.799      26.645    -181.040

 6  7  8  9  10  11  12  13  14  15  16  26  30  31  32  33  35 0
 6-311+G(2d,p)
 ****
 37  38 0
 6-311+G(2d,p)
 ****
 1  2  3  4  5  17  18  19  20  21  22  23  24  25 0
 3-21G
 ****
 27  28  29  34  36  39  40  41  42  43  44  45  46 0
 3-21G
 ****


