%nproc=1
%NoSave
%Mem=1900MB
#P OB98/GEN NMR

erre ene a

0 1
  C      135.361    -162.212    -150.704
  O      134.376    -161.915    -151.712
  P      134.714    -162.235    -153.252
  C      133.894    -159.979    -154.300
  O      133.720    -161.385    -154.183
  C      132.552    -159.267    -154.119
  O      132.068    -159.435    -152.765
  C      132.606    -157.759    -154.337
  O      132.651    -157.426    -155.712
  C      131.322    -157.308    -153.647
  O      130.186    -157.463    -154.521
  C      131.234    -158.291    -152.461
  N      131.614    -157.674    -151.193
  C      130.574    -157.285    -150.357
  O      129.388    -157.385    -150.667
  N      130.941    -156.740    -149.158
  C      132.224    -156.485    -148.747
  O      132.488    -155.973    -147.664
  C      133.277    -156.846    -149.708
  C      132.933    -157.408    -150.868
  O      134.133    -163.721    -153.419
  O      136.160    -162.190    -153.622
  H      130.331    -158.287    -155.022
  H      134.631    -164.194    -154.113
  H      130.203    -156.478    -148.524
  H      134.305    -156.640    -149.430
  H      133.701    -157.678    -151.586
  H      130.214    -158.681    -152.368
  H      131.354    -156.256    -153.352
  H      133.465    -157.338    -153.805
  H      131.824    -159.728    -154.799
  H      134.293    -159.745    -155.294
  H      134.615    -159.646    -153.544
  P      133.704    -156.284    -156.140
  C      132.137    -155.169    -157.914
  O      133.318    -155.898    -157.644
  O      135.051    -157.144    -156.267
  O      133.770    -155.156    -155.164
  H      134.881    -158.050    -156.576
  H      131.907    -154.467    -157.108
  H      131.302    -155.862    -158.038
  H      132.272    -154.606    -158.843
  H      134.980    -161.941    -149.742
  H      136.254    -161.657    -150.903
  H      135.581    -163.259    -150.718

 3  4  5  6  7  8  9  10  11  12  13  23  28  29  30  31  32 0
 6-311+G(2d,p)
 ****
 33  34 0
 6-311+G(2d,p)
 ****
 1  2  14  15  16  17  18  19  20  21  22  24  25  26 0
 3-21G
 ****
 27  35  36  37  38  39  40  41  42  43  44  45 0
 3-21G
 ****


