%nproc=1
%NoSave
%Mem=1900MB
#P OB98/GEN NMR

erre ene a

0 1
  C     -243.524     -94.631      69.399
  O     -243.973     -93.508      70.163
  P     -245.493     -93.038      69.937
  C     -244.771     -90.762      68.930
  O     -245.514     -91.957      68.746
  C     -245.254     -89.650      67.984
  O     -245.183     -90.086      66.595
  C     -246.699     -89.208      68.239
  O     -246.787     -87.810      67.943
  C     -247.481     -89.978      67.190
  O     -248.760     -89.390      66.954
  C     -246.498     -89.923      66.022
  N     -249.135     -91.046      61.794
  C     -249.078     -89.934      62.554
  N     -248.362     -89.720      63.682
  C     -247.622     -90.801      63.979
  C     -247.578     -92.011      63.302
  C     -248.386     -92.117      62.157
  N     -248.464     -93.262      61.396
  N     -246.727     -92.896      63.941
  C     -246.272     -92.231      64.986
  N     -246.758     -90.954      65.034
  O     -245.803     -92.162      71.242
  O     -246.462     -94.166      69.794
  H     -249.258     -89.979      66.346
  H     -246.412     -92.649      71.831
  H     -249.692     -89.100      62.215
  H     -245.602     -92.627      65.734
  H     -246.525     -88.955      65.497
  H     -247.635     -91.013      67.522
  H     -247.061     -89.398      69.254
  H     -244.581     -88.789      68.092
  H     -243.708     -90.949      68.747
  H     -249.088     -93.268      60.605
  H     -247.949     -94.081      61.682
  H     -244.845     -90.448      69.977
  P     -247.252     -86.852      69.145
  C     -249.646     -86.306      68.310
  O     -248.843     -86.999      69.244
  O     -247.039     -85.374      68.554
  O     -246.494     -87.057      70.419
  H     -246.901     -84.739      69.281
  H     -250.475     -86.954      68.007
  H     -249.087     -86.014      67.418
  H     -250.055     -85.408      68.786
  H     -242.503     -94.841      69.640
  H     -243.606     -94.408      68.356
  H     -244.128     -95.484      69.630

 3  4  5  6  7  8  9  10  11  12  22  25  29  30  31  32 0
 6-311+G(2d,p)
 ****
 33  36  37 0
 6-311+G(2d,p)
 ****
 1  2  13  14  15  16  17  18  19  20  21  23  24  26 0
 3-21G
 ****
 27  28  34  35  38  39  40  41  42  43  44  45  46  47  48 0
 3-21G
 ****


