%nproc=1
%NoSave
%Mem=1900MB
#P OB98/GEN NMR

erre ene a

0 1
  C      176.365     102.587     362.404
  O      177.387     103.455     361.914
  P      178.543     103.919     362.923
  C      180.479     102.212     362.872
  O      179.956     103.428     362.342
  C      181.841     102.458     363.542
  O      182.171     101.307     364.366
  C      183.017     102.626     362.574
  O      183.318     103.935     362.097
  C      184.192     102.203     363.455
  O      184.614     103.314     364.268
  C      183.602     101.113     364.344
  N      186.495      96.978     365.180
  C      186.409      98.162     365.822
  N      185.612      99.213     365.533
  C      184.837      98.946     364.470
  C      184.815      97.783     363.719
  C      185.698      96.762     364.107
  N      185.796      95.561     363.449
  N      183.895      97.883     362.695
  C      183.384      99.092     362.819
  N      183.911      99.768     363.883
  O      178.305     103.628     364.367
  O      178.607     105.502     362.668
  H      184.885     104.022     363.651
  H      178.776     105.953     363.519
  H      187.068      98.285     366.677
  H      182.636      99.516     362.163
  H      183.956     101.183     365.379
  H      185.063     101.894     362.868
  H      182.926     101.939     361.725
  H      181.768     103.333     364.197
  H      180.591     101.482     362.069
  H      186.487      94.898     363.765
  H      185.250      95.405     362.612
  H      179.740     101.812     363.566
  P      183.148     104.319     360.552
  C      180.660     104.404     359.751
  O      181.717     105.033     360.439
  O      183.358     103.200     359.594
  O      184.170     105.537     360.383
  H      183.915     106.347     360.853
  H      179.730     104.941     359.973
  H      180.553     103.365     360.069
  H      180.842     104.448     358.674
  H      175.673     102.370     361.617
  H      175.849     103.064     363.211
  H      176.807     101.676     362.751

 3  4  5  6  7  8  9  10  11  12  22  25  29  30  31  32 0
 6-311+G(2d,p)
 ****
 33  36  37 0
 6-311+G(2d,p)
 ****
 1  2  13  14  15  16  17  18  19  20  21  23  24  26 0
 3-21G
 ****
 27  28  34  35  38  39  40  41  42  43  44  45  46  47  48 0
 3-21G
 ****


