%nproc=1
%NoSave
%Mem=1900MB
#P OB98/GEN NMR

erre ene a

0 1
  C       34.675    -697.043     180.531
  O       33.465    -697.719     180.805
  H       35.167    -696.762     181.463
  H       35.335    -697.715     179.972
  H       34.483    -696.153     179.923
  P       32.364    -696.897     181.636
  C       30.258    -698.193     180.865
  O       31.147    -697.912     181.935
  C       29.193    -699.179     181.312
  O       29.796    -700.502     181.400
  C       28.565    -698.859     182.685
  O       27.137    -698.881     182.609
  C       29.025    -699.999     183.579
  O       28.056    -700.358     184.559
  C       29.282    -701.122     182.584
  N       29.970    -704.669     186.187
  C       28.856    -704.118     185.674
  N       28.724    -703.253     184.645
  C       29.928    -702.986     184.123
  C       31.162    -703.470     184.509
  C       31.160    -704.344     185.619
  N       32.310    -704.840     186.177
  N       32.183    -702.950     183.729
  C       31.580    -702.124     182.906
  N       30.219    -702.096     183.102
  O       31.758    -695.888     180.546
  O       32.900    -696.168     182.821
  H       27.297    -700.753     184.088
  H       31.926    -694.974     180.838
  H       27.920    -704.413     186.155
  H       32.072    -701.494     182.174
  H       28.355    -701.644     182.312
  H       29.951    -699.700     184.095
  H       28.896    -697.882     183.075
  H       28.413    -699.239     180.544
  H       30.823    -698.624     180.025
  H       32.226    -705.368     187.043
  H       33.203    -704.523     185.839
  H       29.798    -697.257     180.529
  P       26.398    -697.452     182.663
  C       25.042    -697.956     180.505
  O       25.003    -697.582     181.882
  O       27.300    -696.539     181.705
  O       26.308    -696.875     184.039
  H       27.615    -695.753     182.191
  H       24.045    -698.002     180.120
  H       25.506    -698.915     180.409
  H       25.604    -697.231     179.954

 6  7  8  9  10  11  12  13  14  15  25  28  32  33  34  35 0
 6-311+G(2d,p)
 ****
 36  39  40 0
 6-311+G(2d,p)
 ****
 1  2  3  4  5  16  17  18  19  20  21  22  23  24 0
 3-21G
 ****
 26  27  29  30  31  37  38  41  42  43  44  45  46  47  48 0
 3-21G
 ****


