%nproc=1
%NoSave
%Mem=1900MB
#P OB98/GEN NMR

erre ene a

0 1
  C      228.722     626.957     495.762
  O      230.065     627.457     495.732
  P      230.941     627.717     497.059
  C      232.110     629.840     496.147
  O      232.273     628.516     496.629
  C      233.395     630.339     495.482
  O      233.550     629.735     494.181
  C      233.453     631.837     495.212
  O      233.652     632.594     496.390
  C      234.606     631.915     494.212
  O      235.874     631.952     494.874
  C      234.458     630.587     493.436
  N      234.000     630.761     492.064
  C      234.975     630.625     491.061
  O      236.157     630.436     491.359
  N      234.577     630.715     489.751
  C      233.347     631.032     489.473
  N      233.013     631.089     488.155
  C      232.331     631.323     490.493
  C      232.730     631.169     491.759
  O      231.211     626.481     497.855
  O      230.111     628.786     497.919
  H      230.328     628.682     498.861
  H      235.932     632.825     495.318
  H      231.330     631.623     490.218
  H      232.035     631.354     492.586
  H      235.420     630.042     493.424
  H      234.543     632.805     493.574
  H      232.520     632.147     494.715
  H      234.244     630.036     496.111
  H      233.729     630.872     487.473
  H      231.872     630.494     496.997
  H      232.076     631.301     487.826
  H      231.268     629.870     495.448
  P      233.039     634.077     496.409
  C      234.673     635.154     498.127
  O      233.353     634.719     497.839
  O      231.454     633.836     496.430
  O      233.441     634.934     495.245
  H      231.010     634.499     495.866
  H      234.630     635.962     498.858
  H      235.176     635.517     497.219
  H      235.238     634.318     498.540
  H      228.352     626.869     494.762
  H      228.102     627.633     496.313
  H      228.710     625.996     496.233

 3  4  5  6  7  8  9  10  11  12  13  24  27  28  29  30  32 0
 6-311+G(2d,p)
 ****
 34  35 0
 6-311+G(2d,p)
 ****
 1  2  14  15  16  17  18  19  20  21  22  23  25  26 0
 3-21G
 ****
 31  33  36  37  38  39  40  41  42  43  44  45  46 0
 3-21G
 ****


