%nproc=1
%NoSave
%Mem=1900MB
#P OB98/GEN NMR

erre ene a

0 1
  C     -218.043     189.369    -488.668
  O     -218.574     188.466    -487.713
  P     -218.817     188.921    -486.188
  C     -221.125     190.019    -486.592
  O     -219.750     190.221    -486.296
  C     -221.977     190.382    -485.378
  O     -221.638     189.519    -484.277
  C     -221.781     191.806    -484.872
  O     -222.448     192.741    -485.701
  C     -222.323     191.680    -483.452
  O     -223.759     191.731    -483.461
  C     -221.854     190.268    -483.049
  N     -220.646     190.282    -482.230
  C     -220.659     189.457    -481.100
  O     -221.637     188.760    -480.828
  N     -219.537     189.416    -480.311
  C     -218.505     190.146    -480.604
  N     -217.396     190.013    -479.824
  C     -218.473     191.069    -481.753
  C     -219.568     191.081    -482.519
  O     -217.578     189.108    -485.385
  O     -219.819     187.828    -485.602
  H     -224.061     191.065    -484.112
  H     -219.360     187.041    -485.210
  H     -217.595     191.673    -481.947
  H     -219.618     191.717    -483.391
  H     -222.649     189.742    -482.509
  H     -221.964     192.468    -482.777
  H     -220.713     192.056    -484.837
  H     -223.037     190.212    -485.636
  H     -217.406     189.244    -479.162
  H     -221.276     188.963    -486.835
  H     -216.488     190.313    -480.143
  H     -221.403     190.626    -487.465
  P     -221.821     194.215    -485.818
  C     -220.066     193.598    -487.628
  O     -220.297     194.003    -486.290
  O     -221.702     194.682    -484.293
  O     -222.620     195.166    -486.643
  H     -222.432     195.287    -484.065
  H     -219.008     193.729    -487.855
  H     -220.654     194.201    -488.324
  H     -220.320     192.540    -487.747
  H     -217.959     188.878    -489.615
  H     -217.076     189.697    -488.349
  H     -218.694     190.213    -488.761

 3  4  5  6  7  8  9  10  11  12  13  23  27  28  29  30  32 0
 6-311+G(2d,p)
 ****
 34  35 0
 6-311+G(2d,p)
 ****
 1  2  14  15  16  17  18  19  20  21  22  24  25  26 0
 3-21G
 ****
 31  33  36  37  38  39  40  41  42  43  44  45  46 0
 3-21G
 ****


