%nproc=1
%NoSave
%Mem=1900MB
#P OB98/GEN NMR

erre ene a

0 1
  C      273.633    -186.906    -127.552
  O      274.718    -186.015    -127.721
  H      273.478    -187.456    -128.483
  H      272.724    -186.349    -127.313
  H      273.852    -187.619    -126.751
  P      275.131    -185.137    -126.443
  C      277.589    -185.919    -126.827
  O      276.699    -184.833    -126.606
  C      278.753    -185.475    -127.727
  O      278.276    -185.413    -129.102
  C      279.303    -184.079    -127.381
  O      280.700    -184.044    -127.719
  C      278.531    -183.191    -128.343
  O      279.151    -181.934    -128.458
  C      278.554    -184.081    -129.584
  N      277.324    -180.458    -132.960
  C      278.407    -180.622    -132.164
  N      278.661    -181.621    -131.298
  C      277.670    -182.534    -131.318
  C      276.511    -182.503    -132.072
  C      276.345    -181.396    -132.921
  N      275.239    -181.213    -133.716
  N      275.723    -183.605    -131.793
  C      276.402    -184.291    -130.896
  N      277.585    -183.683    -130.579
  O      275.069    -186.193    -125.241
  O      274.283    -183.938    -126.179
  H      278.853    -181.469    -129.266
  H      274.190    -186.170    -124.821
  H      279.164    -179.844    -132.233
  H      276.085    -185.220    -130.435
  H      279.540    -184.093    -130.066
  H      277.508    -183.028    -127.992
  H      279.175    -183.811    -126.329
  H      279.541    -186.238    -127.699
  H      277.035    -186.734    -127.306
  H      277.985    -186.265    -125.868
  H      275.186    -180.379    -134.278
  H      274.487    -181.886    -133.675
  P      281.790    -183.959    -126.539
  C      283.750    -185.217    -127.717
  O      283.278    -184.008    -127.146
  O      281.657    -185.407    -125.860
  O      281.558    -182.891    -125.524
  H      281.623    -185.311    -124.891
  H      284.750    -185.078    -128.070
  H      283.118    -185.496    -128.534
  H      283.737    -185.990    -126.977

 6  7  8  9  10  11  12  13  14  15  25  28  32  33  34  35 0
 6-311+G(2d,p)
 ****
 36  37  40 0
 6-311+G(2d,p)
 ****
 1  2  3  4  5  16  17  18  19  20  21  22  23  24 0
 3-21G
 ****
 26  27  29  30  31  38  39 41  42  43  44  45  46  47  48 0
 3-21G
 ****


