%nproc=1
%NoSave
%Mem=1900MB
#P OB98/GEN NMR

erre ene a

0 1
  C     -187.135     -14.730    -278.014
  O     -187.741     -14.163    -279.181
  P     -187.311     -12.671    -279.584
  C     -186.017     -11.732    -281.636
  O     -186.122     -12.756    -280.656
  C     -185.307     -12.265    -282.887
  O     -183.985     -12.746    -282.568
  C     -186.021     -13.453    -283.514
  O     -187.139     -13.014    -284.268
  C     -184.918     -14.080    -284.358
  O     -184.888     -13.530    -285.687
  C     -183.635     -13.710    -283.580
  N     -182.980     -14.869    -283.000
  C     -181.826     -15.312    -283.662
  O     -181.434     -14.741    -284.683
  N     -181.161     -16.404    -283.161
  C     -181.624     -17.017    -282.115
  N     -180.927     -18.099    -281.668
  C     -182.849     -16.597    -281.406
  C     -183.476     -15.530    -281.897
  O     -186.586     -12.130    -278.265
  O     -188.458     -11.799    -279.975
  H     -184.626     -12.591    -285.577
  H     -186.731     -11.171    -278.165
  H     -183.199     -17.143    -280.539
  H     -184.382     -15.152    -281.443
  H     -182.911     -13.214    -284.245
  H     -185.061     -15.155    -284.467
  H     -186.338     -14.158    -282.736
  H     -185.221     -11.448    -283.614
  H     -180.088     -18.358    -282.179
  H     -185.461     -10.878    -281.231
  H     -181.198     -18.649    -280.867
  H     -187.020     -11.364    -281.881
  P     -188.579     -13.051    -283.558
  C     -190.204     -11.259    -282.710
  O     -188.913     -11.519    -283.222
  O     -188.220     -13.639    -282.110
  O     -189.655     -13.838    -284.231
  H     -189.038     -13.800    -281.604
  H     -190.236     -10.232    -282.336
  H     -190.446     -11.940    -281.889
  H     -190.952     -11.359    -283.509
  H     -187.509     -15.721    -277.863
  H     -187.369     -14.127    -277.162
  H     -186.074     -14.766    -278.145

 3  4  5  6  7  8  9  10  11  12  13  21  23  27  28  29  30  32 0
 6-311+G(2d,p)
 ****
 34  35 0
 6-311+G(2d,p)
 ****
 1  2  14  15  16  17  18  19  20  22  24  25  26 0
 3-21G
 ****
 31  33  36  37  38  39  40  41  42  43  44  45  46 0
 3-21G
 ****


