%nproc=1
%NoSave
%Mem=1900MB
#P OB98/GEN NMR

erre ene a

0 1
  C       19.380      -9.691    -212.623
  O       20.187     -10.718    -212.040
  P       19.413     -11.860    -211.210
  C       17.441     -13.498    -211.677
  O       18.331     -12.518    -212.197
  C       16.834     -14.331    -212.801
  O       16.394     -13.492    -213.889
  C       17.798     -15.326    -213.435
  O       17.937     -16.499    -212.645
  C       17.087     -15.637    -214.741
  O       16.075     -16.635    -214.526
  C       16.442     -14.286    -215.100
  N       16.532     -12.771    -219.938
  C       15.595     -13.531    -219.266
  N       14.515     -13.921    -219.979
  N       15.703     -13.877    -218.009
  C       16.824     -13.391    -217.417
  C       17.826     -12.631    -217.973
  C       17.705     -12.278    -219.372
  O       18.521     -11.635    -220.026
  N       18.796     -12.320    -217.051
  C       18.365     -12.870    -215.930
  N       17.183     -13.544    -216.102
  O       18.513     -11.014    -210.191
  O       20.315     -12.812    -210.504
  H       15.290     -16.174    -214.163
  H       18.333     -11.538    -209.390
  H       16.401     -12.536    -220.906
  H       18.870     -12.808    -214.975
  H       15.411     -14.409    -215.452
  H       17.763     -16.033    -215.511
  H       14.332     -13.628    -220.927
  H       18.770     -14.852    -213.642
  H       13.800     -14.448    -219.491
  H       15.962     -14.864    -212.399
  H       16.642     -13.009    -211.114
  H       17.985     -14.132    -210.966
  P       19.321     -17.305    -212.766
  C       21.499     -15.897    -212.777
  O       20.413     -16.399    -212.022
  O       19.690     -17.166    -214.319
  O       19.241     -18.734    -212.337
  H       20.214     -17.931    -214.609
  H       21.169     -15.522    -213.747
  H       22.243     -16.689    -212.919
  H       21.962     -15.075    -212.221
  H       20.007      -8.998    -213.144
  H       18.844      -9.178    -211.852
  H       18.686     -10.129    -213.309

 3  4  5  6  7  8  9  10  11  12  23  26  30  31  33  0
 6-311+G(2d,p)
 ****
 35  36  37  38 0
 6-311+G(2d,p)
 ****
 1  2  13  14  15  16  17  18  19  20  21  22  24  25  27  28  29 0
 3-21G
 ****
 32  34  39  40  41  42  43  44  45  46  47  48  49 0
 3-21G
 ****


