%nproc=1
%NoSave
%Mem=1900MB
#P OB98/GEN NMR

erre ene a

0 1
  C     -156.494     897.688    -346.978
  O     -156.093     897.014    -345.814
  H     -157.578     897.861    -346.941
  H     -156.275     897.072    -347.860
  H     -155.981     898.654    -347.076
  P     -154.526     897.000    -345.470
  C     -154.837     898.459    -343.342
  O     -154.230     898.332    -344.625
  C     -154.954     899.929    -342.942
  O     -155.883     900.581    -343.871
  C     -155.476     900.166    -341.508
  O     -154.815     901.302    -340.965
  C     -156.938     900.528    -341.753
  O     -157.474     901.282    -340.656
  C     -156.824     901.307    -343.060
  N     -161.299     903.578    -342.667
  C     -160.116     903.795    -341.978
  N     -160.140     904.703    -340.983
  N     -159.014     903.147    -342.237
  C     -159.126     902.267    -343.253
  C     -160.222     901.956    -344.008
  C     -161.461     902.664    -343.715
  O     -162.533     902.502    -344.260
  N     -159.944     900.971    -344.922
  C     -158.670     900.666    -344.707
  N     -158.119     901.430    -343.697
  O     -153.854     897.299    -346.898
  O     -154.005     895.732    -344.873
  H     -157.261     900.801    -339.830
  H     -153.608     896.454    -347.333
  H     -162.138     904.084    -342.413
  H     -158.101     899.892    -345.218
  H     -156.450     902.327    -342.910
  H     -157.532     899.614    -341.876
  H     -160.949     905.263    -340.752
  H     -155.338     899.297    -340.853
  H     -159.269     904.906    -340.499
  H     -153.984     900.412    -343.088
  H     -154.215     897.935    -342.600
  H     -155.825     897.987    -343.361
  P     -153.670     901.050    -339.844
  C     -151.846     902.027    -341.449
  O     -152.248     900.957    -340.603
  O     -153.951     899.547    -339.376
  O     -153.718     902.002    -338.695
  H     -153.731     899.446    -338.448
  H     -150.887     901.808    -341.870
  H     -151.786     902.930    -340.878
  H     -152.562     902.148    -342.235

 6  7  8  9  10  11  12  13  14  15  26  29  33  34 0
 6-311+G(2d,p)
 ****
 36  38  39  40  41 0
 6-311+G(2d,p)
 ****
 1  2  3  4  5  16  17  18  19  20  21  22  23  24  25 0
 3-21G
 ****
 27  28  30  31  32  35  37  42  43  44  45  46  47 0
 3-21G
 ****
 48  49 0
 3-21G
 ****


