%nproc=1
%NoSave
%Mem=1900MB
#P OB98/GEN NMR

erre ene a

0 1
  C      296.546     213.399     228.186
  O      296.864     212.097     228.661
  P      298.291     211.894     229.374
  C      297.392     213.289     231.371
  O      298.429     213.107     230.415
  C      297.874     212.901     232.767
  O      298.218     211.503     232.803
  C      299.117     213.642     233.236
  O      298.812     214.927     233.753
  C      299.598     212.724     234.344
  O      298.825     212.947     235.537
  C      299.293     211.336     233.767
  N      302.498     207.351     233.819
  C      301.503     207.718     234.656
  N      300.702     208.801     234.577
  C      301.037     209.566     233.528
  C      302.051     209.341     232.611
  C      302.802     208.168     232.777
  N      303.798     207.781     231.909
  N      302.091     210.351     231.674
  C      301.112     211.164     232.009
  N      300.439     210.730     233.115
  O      299.329     212.280     228.218
  O      298.534     210.529     229.918
  H      299.193     212.363     236.225
  H      300.194     211.860     228.391
  H      301.319     207.046     235.488
  H      300.851     212.069     231.478
  H      298.937     210.638     234.529
  H      300.648     212.890     234.609
  H      299.872     213.692     232.441
  H      297.044     213.061     233.467
  H      296.541     212.658     231.100
  H      304.158     206.846     231.991
  H      303.881     208.282     231.033
  H      297.070     214.335     231.355
  P      299.923     216.072     233.555
  C      299.205     217.224     231.339
  O      300.042     216.271     231.970
  O      301.284     215.330     233.955
  O      299.682     217.301     234.366
  H      301.944     215.980     234.262
  H      299.619     217.451     230.353
  H      299.149     218.146     231.917
  H      298.202     216.806     231.209
  H      295.574     213.388     227.738
  H      297.271     213.700     227.459
  H      296.554     214.089     229.004

 3  4  5  6  7  8  9  10  11  12  22  25  29  30  31  32 0
 6-311+G(2d,p)
 ****
 33  36  37 0
 6-311+G(2d,p)
 ****
 1  2  13  14  15  16  17  18  19  20  21  23  24  26 0
 3-21G
 ****
 27  28  34  35  38  39  40  41  42  43  44  45  46  47  48 0
 3-21G
 ****


