%nproc=1
%NoSave
%Mem=1900MB
#P OB98/GEN NMR

erre ene a

0 1
  C       -2.159      60.833     339.665
  O       -0.859      60.241     339.661
  P        0.384      61.093     339.108
  C        0.509      59.982     336.782
  O        0.269      61.181     337.505
  C        0.747      60.280     335.292
  O        0.894      59.039     334.539
  C       -0.417      61.057     334.654
  O        0.068      61.943     333.634
  C       -1.221      59.965     333.978
  O       -2.061      60.487     332.949
  C       -0.099      59.044     333.495
  N       -2.450      55.994     330.106
  C       -2.076      57.295     330.040
  N       -1.435      58.034     330.975
  C       -1.162      57.293     332.061
  C       -1.467      55.954     332.272
  C       -2.152      55.296     331.233
  N       -2.557      53.985     331.312
  N       -1.039      55.538     333.517
  C       -0.524      56.618     334.067
  N       -0.545      57.695     333.216
  O        1.724      60.691     339.622
  O        0.018      62.588     339.559
  H       -1.489      60.960     332.322
  H        0.827      63.029     339.887
  H       -2.332      57.808     329.120
  H       -0.134      56.680     335.075
  H        0.374      59.429     332.586
  H       -1.858      59.461     334.720
  H       -1.021      61.634     335.367
  H        1.683      60.839     335.185
  H       -0.340      59.306     336.898
  H       -3.137      53.632     330.567
  H       -2.477      53.503     332.196
  H        1.366      59.458     337.226
  P        0.107      63.509     334.017
  C       -2.389      64.035     333.443
  O       -1.393      63.896     334.430
  O        0.750      64.363     332.969
  O        0.909      63.484     335.402
  H        0.571      62.852     336.062
  H       -3.356      64.172     333.927
  H       -2.441      63.142     332.808
  H       -2.185      64.916     332.821
  H       -2.867      60.136     340.062
  H       -2.436      61.092     338.664
  H       -2.148      61.714     340.272

 3  4  5  6  7  8  9  10  11  12  22  25  29  30  31  32 0
 6-311+G(2d,p)
 ****
 33  36  37 0
 6-311+G(2d,p)
 ****
 1  2  13  14  15  16  17  18  19  20  21  23  24  26 0
 3-21G
 ****
 27  28  34  35  38  39  40  41  42  43  44  45  46  47  48 0
 3-21G
 ****


