%nproc=1
%NoSave
%Mem=1900MB
#P OB98/GEN NMR

erre ene a

0 1
  C     -347.795    -271.207     482.537
  O     -347.204    -270.830     483.765
  H     -347.316    -270.647     481.730
  H     -348.862    -270.966     482.549
  H     -347.654    -272.277     482.357
  P     -347.639    -271.669     485.063
  C     -347.407    -274.195     485.736
  O     -347.202    -273.182     484.770
  C     -346.169    -275.088     485.855
  O     -346.005    -275.822     484.616
  C     -344.875    -274.313     486.113
  O     -344.043    -275.097     486.970
  C     -344.238    -274.225     484.737
  O     -342.829    -274.021     484.807
  C     -344.676    -275.564     484.119
  N     -344.640    -275.540     482.657
  C     -343.692    -276.356     482.037
  O     -342.921    -277.040     482.718
  N     -343.598    -276.351     480.669
  C     -344.345    -275.548     479.981
  N     -344.191    -275.570     478.627
  C     -345.333    -274.637     480.593
  C     -345.432    -274.689     481.920
  O     -349.234    -271.698     484.915
  O     -347.152    -271.104     486.356
  H     -342.444    -274.710     485.391
  H     -349.533    -271.896     484.012
  H     -345.925    -273.976     479.974
  H     -346.136    -274.061     482.453
  H     -344.027    -276.377     484.466
  H     -344.670    -273.388     484.176
  H     -345.051    -273.334     486.565
  H     -346.349    -275.830     486.643
  H     -343.487    -276.192     478.250
  H     -348.272    -274.810     485.466
  H     -344.677    -274.949     477.997
  H     -347.622    -273.713     486.695
  P     -344.160    -274.931     488.555
  C     -345.967    -275.604     490.281
  O     -345.231    -275.981     489.123
  O     -344.315    -273.534     489.051
  O     -342.769    -275.548     489.080
  H     -342.446    -274.982     489.808
  H     -346.640    -276.392     490.548
  H     -346.524    -274.714     490.075
  H     -345.291    -275.423     491.090

 6  7  8  9  10  11  12  13  14  15  16  26  30  31  32  33  35 0
 6-311+G(2d,p)
 ****
 37  38 0
 6-311+G(2d,p)
 ****
 1  2  3  4  5  17  18  19  20  21  22  23  24  25 0
 3-21G
 ****
 27  28  29  34  36  39  40  41  42  43  44  45  46 0
 3-21G
 ****


