%nproc=1
%NoSave
%Mem=1900MB
#P OB98/GEN NMR

erre ene a

0 1
  C      340.215    -309.209    -105.249
  O      340.485    -310.578    -105.021
  P      341.450    -311.447    -105.951
  C      342.023    -311.366    -108.482
  O      341.027    -311.212    -107.485
  C      341.825    -310.432    -109.688
  O      342.070    -309.073    -109.279
  C      342.852    -310.748    -110.779
  O      342.609    -311.794    -111.699
  C      343.187    -309.407    -111.413
  O      342.460    -309.166    -112.621
  C      342.773    -308.393    -110.334
  N      346.554    -305.118    -111.176
  C      345.451    -305.402    -111.966
  N      345.469    -304.871    -113.211
  N      344.447    -306.139    -111.569
  C      344.619    -306.672    -110.333
  C      345.661    -306.451    -109.457
  C      346.746    -305.602    -109.891
  O      347.779    -305.403    -109.258
  N      345.537    -307.218    -108.325
  C      344.443    -307.922    -108.526
  N      343.875    -307.655    -109.755
  O      341.742    -312.840    -105.495
  O      342.828    -310.608    -105.846
  H      342.658    -308.250    -112.911
  H      343.568    -311.247    -105.885
  H      347.338    -304.608    -111.562
  H      344.039    -308.666    -107.843
  H      342.074    -307.651    -110.749
  H      344.247    -309.352    -111.673
  H      346.282    -304.430    -113.596
  H      343.775    -311.057    -110.266
  H      344.766    -305.195    -113.863
  H      340.789    -310.455    -110.040
  H      342.004    -312.417    -108.809
  H      343.012    -311.191    -108.053
  P      343.667    -312.403    -112.744
  C      345.182    -311.359    -114.517
  O      343.907    -311.329    -113.905
  O      342.853    -313.563    -113.492
  O      344.914    -312.957    -112.125
  H      343.477    -314.212    -113.880
  H      345.342    -310.421    -115.059
  H      345.234    -312.190    -115.227
  H      345.977    -311.472    -113.764
  H      339.544    -308.848    -104.498
  H      339.768    -309.090    -106.214
  H      341.129    -308.654    -105.208

 3  4  5  6  7  8  9  10  11  12  23  26  30  31 0
 6-311+G(2d,p)
 ****
 33  35  36  37  38 0
 6-311+G(2d,p)
 ****
 1  2  13  14  15  16  17  18  19  20  21  22  24  25 0
 3-21G
 ****
 27  28  29  32  34  39  40  41  42  43  44  45  46  47  48  49 0
 3-21G
 ****


