%nproc=1
%NoSave
%Mem=1900MB
#P OB98/GEN NMR

erre ene a

0 1
  C     -277.296      -6.079    -104.509
  O     -276.317      -5.720    -103.545
  P     -276.829      -5.243    -102.102
  C     -277.817      -2.923    -102.675
  O     -276.738      -3.640    -102.093
  C     -278.134      -1.664    -101.877
  O     -279.215      -0.946    -102.532
  C     -278.565      -1.931    -100.426
  O     -277.918      -0.987     -99.558
  C     -280.052      -1.603    -100.436
  O     -280.521      -1.227     -99.146
  C     -280.083      -0.487    -101.476
  N     -284.787       0.869    -100.230
  C     -283.633       0.893     -99.472
  N     -283.762       1.277     -98.183
  N     -282.454       0.567     -99.932
  C     -282.466       0.227    -101.247
  C     -283.543       0.180    -102.102
  C     -284.848       0.484    -101.565
  O     -285.924       0.397    -102.160
  N     -283.154      -0.191    -103.365
  C     -281.852      -0.368    -103.276
  N     -281.392      -0.169    -101.998
  O     -275.639      -5.698    -101.132
  O     -278.133      -5.821    -101.666
  H     -280.129      -0.353     -98.942
  H     -275.992      -6.276    -100.427
  H     -285.671       1.116     -99.817
  H     -281.207      -0.662    -104.098
  H     -279.655       0.438    -101.061
  H     -280.610      -2.483    -100.768
  H     -284.632       1.583     -97.774
  H     -278.370      -2.950    -100.076
  H     -282.925       1.324     -97.619
  H     -277.252      -1.006    -101.903
  H     -278.705      -3.565    -102.703
  H     -277.548      -2.656    -103.708
  P     -276.808      -1.597     -98.568
  C     -278.774      -1.581     -96.865
  O     -277.390      -1.407     -97.089
  O     -275.618      -0.529     -98.651
  O     -276.366      -2.976     -98.930
  H     -274.766      -0.948     -98.420
  H     -279.288      -1.996     -97.739
  H     -279.221      -0.611     -96.620
  H     -278.917      -2.258     -96.018
  H     -276.812      -6.374    -105.416
  H     -277.932      -5.240    -104.701
  H     -277.882      -6.893    -104.136

 3  4  5  6  7  8  9  10  11  12  23  26  30  31  33  0
 6-311+G(2d,p)
 ****
 35  36  37  38 0
 6-311+G(2d,p)
 ****
 1  2  13  14  15  16  17  18  19  20  21  22  24  25  27  28  29 0
 3-21G
 ****
 32  34  39  40  41  42  43  44  45  46  47  48  49 0
 3-21G
 ****


