%nproc=1
%NoSave
%Mem=1900MB
#P OB98/GEN NMR

erre ene a

0 1
  C      -49.295      29.134     -69.149
  O      -48.611      27.903     -69.035
  H      -48.998      29.613     -70.085
  H      -49.038      29.797     -68.319
  H      -50.376      28.967     -69.171
  P      -48.787      27.054     -67.689
  C      -51.073      26.034     -68.336
  O      -49.702      25.792     -68.058
  C      -51.955      24.934     -67.733
  O      -53.345      25.367     -67.781
  C      -51.871      23.592     -68.480
  O      -52.109      22.554     -67.521
  C      -53.036      23.712     -69.442
  O      -53.365      22.470     -70.011
  C      -54.076      24.376     -68.535
  N      -55.178      24.961     -69.282
  C      -56.016      24.065     -69.949
  O      -55.798      22.854     -69.898
  N      -57.062      24.562     -70.684
  C      -57.216      25.844     -70.797
  N      -58.263      26.272     -71.552
  C      -56.317      26.826     -70.157
  C      -55.332      26.320     -69.417
  O      -49.234      27.823     -66.491
  O      -47.345      26.399     -67.454
  H      -53.461      21.780     -69.317
  H      -46.884      26.866     -66.733
  H      -56.478      27.884     -70.298
  H      -54.620      26.962     -68.908
  H      -54.486      23.654     -67.817
  H      -52.782      24.378     -70.272
  H      -50.908      23.439     -68.973
  H      -51.696      24.815     -66.675
  H      -58.847      25.564     -71.981
  H      -51.190      26.052     -69.424
  H      -58.470      27.243     -71.728
  H      -51.373      27.007     -67.934
  P      -50.930      21.822     -66.720
  C      -50.066      23.394     -64.865
  O      -50.938      22.316     -65.196
  O      -49.593      21.918     -67.383
  O      -51.388      20.290     -66.615
  H      -50.597      19.720     -66.605
  H      -50.165      23.627     -63.825
  H      -50.323      24.253     -65.449
  H      -49.055      23.111     -65.072

 6  7  8  9  10  11  12  13  14  15  16  26  30  31  32  33  35 0
 6-311+G(2d,p)
 ****
 37  38 0
 6-311+G(2d,p)
 ****
 1  2  3  4  5  17  18  19  20  21  22  23  24  25 0
 3-21G
 ****
 27  28  29  34  36  39  40  41  42  43  44  45  46 0
 3-21G
 ****


