%nproc=1
%NoSave
%Mem=1900MB
#P OB98/GEN NMR

erre ene a

0 1
  C     -574.675      67.257    -630.189
  O     -574.401      67.899    -631.419
  H     -575.153      67.976    -629.517
  H     -573.741      66.920    -629.734
  H     -575.350      66.408    -630.334
  P     -574.010      66.955    -632.654
  C     -571.785      65.994    -633.605
  O     -572.419      66.711    -632.553
  C     -570.296      66.334    -633.661
  O     -570.100      67.691    -634.122
  C     -569.581      66.240    -632.312
  O     -569.192      64.896    -632.029
  C     -568.370      67.108    -632.575
  O     -567.405      66.383    -633.371
  C     -568.974      68.257    -633.404
  N     -567.629      71.910    -630.145
  C     -566.879      70.882    -630.679
  N     -565.585      70.803    -630.283
  N     -567.348      69.996    -631.528
  C     -568.665      70.178    -631.808
  C     -569.513      71.160    -631.340
  C     -568.966      72.137    -630.422
  O     -569.592      73.085    -629.934
  N     -570.779      71.022    -631.862
  C     -570.698      69.944    -632.625
  N     -569.433      69.397    -632.626
  O     -574.162      67.932    -633.917
  O     -574.842      65.725    -632.816
  H     -567.871      66.067    -634.172
  H     -575.003      67.729    -634.372
  H     -567.222      72.569    -629.497
  H     -571.514      69.537    -633.195
  H     -568.270      68.647    -634.151
  H     -567.860      67.416    -631.656
  H     -565.161      71.438    -629.615
  H     -570.181      66.674    -631.497
  H     -565.023      70.059    -630.653
  H     -569.819      65.664    -634.399
  H     -572.254      66.262    -634.558
  H     -571.918      64.914    -633.426
  P     -568.832      64.530    -630.505
  C     -566.507      64.553    -629.355
  O     -567.438      65.253    -630.156
  O     -568.438      62.982    -630.599
  O     -569.930      64.748    -629.505
  H     -569.111      62.430    -630.154
  H     -565.636      65.157    -629.210
  H     -566.232      63.641    -629.842
  H     -566.949      64.331    -628.406

 6  7  8  9  10  11  12  13  14  15  26  29  33  34 0
 6-311+G(2d,p)
 ****
 36  38  39  40  41 0
 6-311+G(2d,p)
 ****
 1  2  3  4  5  16  17  18  19  20  21  22  23  24  25 0
 3-21G
 ****
 27  28  30  31  32  35  37  42  43  44  45  46  47 0
 3-21G
 ****
 48  49 0
 3-21G
 ****


