%nproc=1
%NoSave
%Mem=1900MB
#P OB98/GEN NMR

erre ene a

0 1
  C       63.128     209.679    -226.076
  O       62.620     208.387    -226.367
  P       62.180     207.986    -227.859
  C       64.081     206.255    -228.115
  O       63.527     207.484    -228.566
  C       63.628     205.117    -229.025
  O       63.981     205.419    -230.389
  C       64.271     203.770    -228.719
  O       63.686     203.174    -227.571
  C       64.036     203.034    -230.033
  O       62.690     202.538    -230.096
  C       64.225     204.163    -231.068
  N       65.545     204.149    -231.687
  C       65.823     203.077    -232.539
  O       64.983     202.204    -232.754
  N       67.044     203.031    -233.165
  C       67.921     203.961    -232.942
  N       69.086     203.903    -233.641
  C       67.690     205.079    -232.009
  C       66.494     205.113    -231.427
  O       61.446     209.050    -228.602
  O       61.354     206.633    -227.684
  H       62.619     201.833    -229.423
  H       60.390     206.776    -227.521
  H       68.457     205.823    -231.846
  H       66.239     205.912    -230.744
  H       63.466     204.090    -231.853
  H       64.712     202.187    -230.186
  H       65.347     203.889    -228.552
  H       62.534     205.042    -228.962
  H       69.129     203.226    -234.395
  H       63.724     206.064    -227.097
  H       69.682     204.715    -233.745
  H       65.173     206.335    -228.097
  P       64.672     202.498    -226.503
  C       64.119     204.326    -224.750
  O       65.121     203.680    -225.513
  O       65.982     202.178    -227.365
  O       64.120     201.281    -225.840
  H       66.005     201.233    -227.607
  H       64.606     204.920    -223.973
  H       63.462     203.593    -224.274
  H       63.535     204.993    -225.389
  H       63.361     209.744    -225.034
  H       62.393     210.416    -226.324
  H       64.014     209.852    -226.651

 3  4  5  6  7  8  9  10  11  12  13  23  27  28  29  30  32 0
 6-311+G(2d,p)
 ****
 34  35 0
 6-311+G(2d,p)
 ****
 1  2  14  15  16  17  18  19  20  21  22  24  25  26 0
 3-21G
 ****
 31  33  36  37  38  39  40  41  42  43  44  45  46 0
 3-21G
 ****


