%nproc=1
%NoSave
%Mem=1900MB
#P OB98/GEN NMR

erre ene a

0 1
  C     -714.547     268.562    -511.404
  O     -713.187     268.268    -511.626
  H     -714.777     269.539    -511.842
  H     -714.749     268.601    -510.324
  H     -715.187     267.803    -511.870
  P     -712.660     266.816    -511.206
  C     -712.130     267.408    -508.723
  O     -711.621     267.034    -509.996
  C     -711.125     267.060    -507.623
  O     -711.105     265.616    -507.437
  C     -709.693     267.509    -507.930
  O     -709.089     267.982    -506.706
  C     -709.007     266.238    -508.382
  O     -707.589     266.284    -508.176
  C     -709.749     265.171    -507.562
  N     -709.663     263.856    -508.195
  C     -708.911     262.900    -507.517
  O     -708.347     263.159    -506.452
  N     -708.752     261.655    -508.087
  C     -709.231     261.428    -509.284
  N     -709.018     260.190    -509.805
  C     -709.967     262.445    -510.062
  C     -710.157     263.623    -509.462
  O     -711.707     266.390    -512.430
  O     -713.723     265.809    -510.925
  H     -707.247     267.091    -508.614
  H     -711.730     265.425    -512.564
  H     -710.332     262.207    -511.058
  H     -710.671     264.427    -509.959
  H     -709.324     265.103    -506.559
  H     -709.187     266.098    -509.463
  H     -709.642     268.317    -508.670
  H     -711.481     267.488    -506.674
  H     -708.500     259.527    -509.255
  H     -713.060     266.856    -508.546
  H     -709.314     259.927    -510.727
  H     -712.346     268.483    -508.725
  P     -709.352     269.494    -506.304
  C     -707.172     270.727    -507.003
  O     -707.940     270.173    -505.935
  O     -710.101     269.397    -504.894
  O     -710.184     270.252    -507.308
  H     -711.048     269.623    -504.992
  H     -706.265     271.141    -506.613
  H     -707.736     271.497    -507.486
  H     -706.938     269.959    -507.710

 6  7  8  9  10  11  12  13  14  15  16  26  30  31  32  33  35 0
 6-311+G(2d,p)
 ****
 37  38 0
 6-311+G(2d,p)
 ****
 1  2  3  4  5  17  18  19  20  21  22  23  24  25 0
 3-21G
 ****
 27  28  29  34  36  39  40  41  42  43  44  45  46 0
 3-21G
 ****


