%nproc=1
%NoSave
%Mem=1900MB
#P OB98/GEN NMR

erre ene a

0 1
  C     1524.465     971.809    2256.387
  O     1525.276     972.931    2256.085
  H     1524.295     971.248    2255.470
  H     1523.503     972.131    2256.780
  H     1524.960     971.159    2257.114
  P     1525.626     973.970    2257.271
  C     1528.020     974.044    2256.268
  O     1527.204     973.944    2257.454
  C     1529.452     974.348    2256.629
  O     1529.515     975.724    2257.144
  C     1530.030     973.415    2257.745
  O     1531.243     972.772    2257.346
  C     1530.003     974.292    2258.966
  O     1530.959     973.897    2259.970
  C     1530.210     975.714    2258.416
  N     1529.689     976.770    2259.274
  C     1530.439     977.125    2260.403
  O     1531.533     976.597    2260.706
  N     1529.917     978.109    2261.173
  C     1528.721     978.772    2260.982
  O     1528.304     979.628    2261.707
  C     1527.959     978.310    2259.806
  C     1528.451     977.351    2258.999
  O     1524.831     973.777    2258.532
  O     1525.349     975.401    2256.597
  H     1531.824     974.018    2259.564
  H     1524.512     975.767    2256.955
  H     1530.470     978.381    2261.946
  H     1527.011     978.812    2259.593
  H     1527.894     977.019    2258.126
  H     1531.257     975.914    2258.229
  H     1529.004     974.209    2259.435
  H     1529.342     972.565    2257.904
  H     1530.075     974.295    2255.718
  H     1527.587     974.843    2255.644
  H     1527.949     973.103    2255.731
  P     1531.736     971.345    2257.860
  C     1532.159     970.436    2255.406
  O     1531.509     970.284    2256.657
  O     1531.312     970.904    2259.229
  O     1533.364     971.524    2257.866
  H     1533.679     970.922    2258.588
  H     1531.875     969.634    2254.757
  H     1533.219     970.419    2255.550
  H     1531.874     971.369    2254.967

 6  7  8  9  10  11  12  13  14  15  16  26  31  32  33  34  35 0
 6-311+G(2d,p)
 ****
 36  37 0
 6-311+G(2d,p)
 ****
 1  2  3  4  5  17  18  19  20  21  22  23  24  25 0
 3-21G
 ****
 27  28  29  30  38  39  40  41  42  43  44  45 0
 3-21G
 ****


