%nproc=1
%NoSave
%Mem=1900MB
#P OB98/GEN NMR

erre ene a

0 1
  C      834.027     350.004     793.327
  O      834.538     351.275     793.688
  H      834.865     349.359     793.050
  H      833.350     350.090     792.477
  H      833.505     349.550     794.180
  P      833.499     352.445     794.036
  C      834.122     353.488     791.748
  O      833.921     353.708     793.140
  C      834.857     354.679     791.110
  O      833.937     355.818     791.074
  C      836.106     355.133     791.888
  O      837.025     355.685     790.931
  C      835.535     356.220     792.766
  O      836.554     357.006     793.344
  C      834.575     356.901     791.789
  N      833.600     357.750     792.459
  C      833.993     359.075     792.688
  O      835.107     359.457     792.344
  N      833.114     359.915     793.332
  C      831.980     359.459     793.762
  N      831.169     360.339     794.408
  C      831.555     358.060     793.590
  C      832.403     357.263     792.932
  O      833.313     352.742     795.481
  O      832.134     351.961     793.349
  H      836.161     357.706     793.928
  H      831.520     351.634     794.038
  H      830.605     357.717     793.987
  H      832.184     356.212     792.756
  H      835.127     357.513     791.059
  H      834.973     355.787     793.608
  H      836.578     354.318     792.444
  H      835.101     354.422     790.067
  H      831.509     361.293     794.515
  H      833.139     353.365     791.287
  H      830.270     360.091     794.802
  H      834.710     352.569     791.592
  P      838.266     354.846     790.324
  C      840.037     355.595     792.044
  O      839.626     355.603     790.683
  O      838.101     354.509     788.869
  O      838.334     353.511     791.208
  H      838.666     352.785     790.647
  H      840.956     356.134     792.142
  H      840.179     354.585     792.368
  H      839.285     356.060     792.646

 6  7  8  9  10  11  12  13  14  15  16  26  30  31  32  33  35 0
 6-311+G(2d,p)
 ****
 37  38 0
 6-311+G(2d,p)
 ****
 1  2  3  4  5  17  18  19  20  21  22  23  24  25 0
 3-21G
 ****
 27  28  29  34  36  39  40  41  42  43  44  45  46 0
 3-21G
 ****


