%nproc=1
%NoSave
%Mem=1900MB
#P OB98/GEN NMR

erre ene a

0 1
  C       83.041     245.245      61.512
  O       81.901     244.549      62.019
  P       81.073     243.581      61.050
  C       81.433     241.260      62.136
  O       81.748     242.126      61.051
  C       80.709     240.014      61.618
  O       81.558     239.232      60.744
  C       80.314     239.053      62.732
  O       79.290     239.480      63.607
  C       80.088     237.756      61.976
  O       78.783     237.704      61.399
  C       81.168     237.848      60.871
  N       82.323     236.993      61.139
  C       82.607     236.030      60.175
  O       81.920     235.854      59.172
  N       83.697     235.241      60.425
  C       84.491     235.297      61.533
  O       85.444     234.550      61.717
  C       84.127     236.319      62.528
  C       83.076     237.107      62.289
  O       80.752     244.131      59.702
  O       79.719     243.327      61.881
  H       78.756     236.928      60.808
  H       78.974     243.347      61.249
  H       83.924     234.543      59.734
  H       84.731     236.388      63.422
  H       82.791     237.867      63.009
  H       80.749     237.550      59.902
  H       80.182     236.885      62.631
  H       81.196     238.896      63.369
  H       79.841     240.331      61.037
  H       80.811     241.786      62.860
  H       82.359     240.995      62.658
  P       79.551     239.883      65.137
  C       79.662     242.461      64.890
  O       80.360     241.266      65.163
  O       80.008     238.805      66.061
  O       78.083     240.355      65.593
  H       77.967     240.131      66.535
  H       80.368     243.295      64.936
  H       78.878     242.625      65.633
  H       79.226     242.428      63.888
  H       83.470     245.842      62.290
  H       82.742     245.877      60.702
  H       83.765     244.538      61.165

 3  4  5  6  7  8  9  10  11  12  13  23  28  29  30  31  32 0
 6-311+G(2d,p)
 ****
 33  34 0
 6-311+G(2d,p)
 ****
 1  2  14  15  16  17  18  19  20  21  22  24  25  26  27 0
 3-21G
 ****
 35  36  37  38  39  40  41  42  43  44  45 0
 3-21G
 ****


