%nproc=1
%NoSave
%Mem=1900MB
#P OB98/GEN NMR

erre ene a

0 1
  C     -106.714     259.304    -764.650
  O     -108.132     259.136    -764.663
  P     -108.888     259.189    -766.074
  C     -109.682     256.669    -766.257
  O     -109.997     258.041    -766.143
  C     -110.864     255.834    -765.707
  O     -110.770     255.722    -764.272
  C     -112.236     256.439    -766.038
  O     -112.698     256.042    -767.308
  C     -113.075     255.930    -764.880
  O     -113.439     254.553    -765.103
  C     -112.073     256.035    -763.702
  N     -111.984     257.340    -762.994
  C     -113.096     257.840    -762.310
  O     -114.176     257.276    -762.257
  N     -112.900     259.039    -761.667
  C     -111.725     259.690    -761.487
  O     -111.600     260.727    -760.855
  C     -110.556     259.033    -762.090
  C     -110.724     257.925    -762.816
  O     -107.778     258.703    -767.122
  O     -109.447     260.540    -766.431
  H     -112.610     254.048    -765.189
  H     -107.547     259.430    -767.741
  H     -113.716     259.444    -761.235
  H     -109.575     259.489    -761.934
  H     -109.866     257.431    -763.272
  H     -112.293     255.280    -762.936
  H     -114.002     256.483    -764.799
  H     -112.186     257.532    -765.964
  H     -110.794     254.824    -766.132
  H     -108.762     256.430    -765.703
  H     -109.496     256.421    -767.301
  P     -114.026     256.692    -767.919
  C     -112.948     257.841    -769.947
  O     -113.784     256.785    -769.503
  O     -114.499     257.957    -767.261
  O     -115.116     255.516    -767.799
  H     -115.661     255.627    -766.976
  H     -112.731     257.697    -771.012
  H     -112.001     257.846    -769.392
  H     -113.450     258.802    -769.813
  H     -106.357     259.244    -763.643
  H     -106.464     260.260    -765.061
  H     -106.258     258.534    -765.236

 3  4  5  6  7  8  9  10  11  12  13  23  28  29  30  31  32 0
 6-311+G(2d,p)
 ****
 33  34 0
 6-311+G(2d,p)
 ****
 1  2  14  15  16  17  18  19  20  21  22  24  25  26  27 0
 3-21G
 ****
 35  36  37  38  39  40  41  42  43  44  45 0
 3-21G
 ****


