%nproc=1
%NoSave
%Mem=1900MB
#P OB98/GEN NMR

erre ene a

0 1
  C     -150.226    -199.077     113.745
  O     -150.991    -197.957     114.129
  P     -151.079    -196.666     113.181
  C     -150.253    -195.147     115.087
  O     -150.019    -195.608     113.763
  C     -149.212    -194.100     115.472
  O     -147.897    -194.702     115.618
  C     -149.011    -193.011     114.429
  O     -150.087    -192.131     114.191
  C     -147.699    -192.394     114.892
  O     -147.909    -191.473     115.962
  C     -146.932    -193.644     115.394
  N     -145.885    -194.054     114.460
  C     -144.580    -193.767     114.847
  O     -144.289    -193.203     115.901
  N     -143.604    -194.121     113.956
  C     -143.802    -194.680     112.725
  O     -142.883    -194.932     111.958
  C     -145.205    -194.947     112.367
  C     -146.168    -194.625     113.234
  O     -152.453    -196.121     112.979
  O     -150.368    -197.153     111.829
  H     -147.033    -191.123     116.221
  H     -149.440    -197.433     111.937
  H     -142.652    -193.911     114.208
  H     -145.396    -195.400     111.403
  H     -147.208    -194.808     112.992
  H     -146.462    -193.436     116.365
  H     -147.201    -191.845     114.084
  H     -148.811    -193.498     113.463
  H     -149.485    -193.683     116.444
  H     -150.181    -195.994     115.778
  H     -151.270    -194.742     115.160
  P     -150.128    -191.096     112.970
  C     -150.502    -188.986     114.430
  O     -149.667    -189.660     113.511
  O     -151.330    -191.146     112.088
  O     -148.840    -191.554     112.121
  H     -149.008    -191.380     111.174
  H     -150.059    -188.013     114.655
  H     -150.582    -189.556     115.361
  H     -151.495    -188.826     114.004
  H     -150.291    -199.830     114.502
  H     -149.204    -198.785     113.619
  H     -150.602    -199.466     112.822

 3  4  5  6  7  8  9  10  11  12  13  23  28  29  30  31  32 0
 6-311+G(2d,p)
 ****
 33  34 0
 6-311+G(2d,p)
 ****
 1  2  14  15  16  17  18  19  20  21  22  24  25  26  27 0
 3-21G
 ****
 35  36  37  38  39  40  41  42  43  44  45 0
 3-21G
 ****


