%nproc=1
%NoSave
%Mem=1900MB
#P OB98/GEN NMR

erre ene a

0 1
  C       50.826    -159.619    -253.151
  O       51.862    -160.014    -252.268
  P       52.988    -161.066    -252.728
  C       51.617    -163.012    -251.724
  O       52.211    -162.457    -252.891
  C       50.659    -164.136    -252.113
  O       49.611    -163.608    -252.953
  C       51.301    -165.262    -252.911
  O       52.063    -166.116    -252.070
  C       50.072    -165.900    -253.550
  O       49.405    -166.753    -252.607
  C       49.196    -164.666    -253.848
  N       49.277    -164.236    -255.242
  C       48.921    -165.183    -256.207
  O       48.550    -166.312    -255.885
  N       48.960    -164.818    -257.531
  C       49.342    -163.622    -257.863
  N       49.293    -163.294    -259.183
  C       49.778    -162.615    -256.880
  C       49.715    -162.982    -255.602
  O       54.190    -161.120    -251.849
  O       53.310    -160.670    -254.241
  H       48.608    -167.100    -253.054
  H       54.021    -159.989    -254.328
  H       50.101    -161.636    -257.207
  H       50.001    -162.294    -254.817
  H       48.147    -164.877    -253.604
  H       50.302    -166.497    -254.438
  H       51.952    -164.858    -253.694
  H       50.200    -164.529    -251.195
  H       48.822    -163.952    -259.797
  H       51.055    -162.226    -251.209
  H       49.291    -162.328    -259.488
  H       52.403    -163.378    -251.055
  P       53.372    -166.800    -252.695
  C       52.026    -168.887    -253.446
  O       52.839    -167.797    -253.838
  O       53.876    -167.768    -251.526
  O       54.424    -165.834    -253.128
  H       54.625    -167.362    -251.051
  H       51.562    -169.312    -254.341
  H       51.237    -168.560    -252.765
  H       52.640    -169.656    -252.970
  H       50.185    -158.919    -252.658
  H       50.259    -160.478    -253.442
  H       51.252    -159.162    -254.019

 3  4  5  6  7  8  9  10  11  12  13  23  27  28  29  30  32 0
 6-311+G(2d,p)
 ****
 34  35 0
 6-311+G(2d,p)
 ****
 1  2  14  15  16  17  18  19  20  21  22  24  25  26 0
 3-21G
 ****
 31  33  36  37  38  39  40  41  42  43  44  45  46 0
 3-21G
 ****


