%nproc=1
%NoSave
%Mem=1900MB
#P OB98/GEN NMR

erre ene a

0 1
  C     -577.640     223.126     -81.280
  O     -576.409     222.454     -81.480
  H     -577.458     224.012     -80.665
  H     -578.347     222.472     -80.760
  H     -578.054     223.440     -82.240
  P     -576.458     221.131     -82.385
  C     -575.867     222.544     -84.469
  O     -576.804     221.669     -83.854
  C     -575.748     222.240     -85.961
  O     -574.807     223.129     -86.587
  C     -575.263     220.832     -86.275
  O     -576.325     219.898     -86.184
  C     -574.791     221.008     -87.711
  O     -575.923     220.977     -88.603
  C     -574.182     222.421     -87.691
  N     -569.772     224.224     -89.608
  C     -571.025     224.212     -90.102
  N     -572.144     223.680     -89.559
  C     -571.869     223.107     -88.377
  C     -570.636     223.040     -87.744
  C     -569.554     223.642     -88.406
  N     -568.273     223.653     -87.892
  N     -570.738     222.374     -86.539
  C     -572.019     222.090     -86.424
  N     -572.743     222.482     -87.524
  O     -577.310     220.024     -81.868
  O     -574.899     220.787     -82.505
  H     -576.436     220.170     -88.397
  H     -574.373     221.601     -82.597
  H     -571.158     224.701     -91.064
  H     -572.478     221.624     -85.557
  H     -574.411     222.973     -88.612
  H     -574.113     220.211     -88.027
  H     -574.407     220.552     -85.649
  H     -576.729     222.425     -86.420
  H     -574.886     222.452     -83.989
  H     -567.528     223.953     -88.504
  H     -568.091     223.120     -87.059
  H     -576.230     223.568     -84.323
  P     -576.031     218.318     -86.203
  C     -577.277     218.137     -83.960
  O     -576.088     217.824     -84.678
  O     -574.799     217.919     -86.938
  O     -577.347     217.674     -86.843
  H     -577.105     216.926     -87.425
  H     -577.200     217.760     -82.962
  H     -578.117     217.688     -84.447
  H     -577.407     219.199     -83.931

 6  7  8  9  10  11  12  13  14  15  25  28  32  33  34  35 0
 6-311+G(2d,p)
 ****
 36  39  40 0
 6-311+G(2d,p)
 ****
 1  2  3  4  5  16  17  18  19  20  21  22  23  24 0
 3-21G
 ****
 26  27  29  30  31  37  38  41  42  43  44  45  46  47 0
 3-21G
 ****
 48 0
 3-21G
 ****


