%nproc=1
%NoSave
%Mem=1900MB
#P OB98/GEN NMR

erre ene a

0 1
  C      134.221     -21.425     141.633
  O      133.594     -20.382     142.348
  H      133.584     -21.701     140.789
  H      134.342     -22.296     142.283
  H      135.196     -21.114     141.250
  P      134.457     -19.548     143.407
  C      133.808     -17.088     142.976
  O      133.609     -18.239     143.782
  C      132.989     -17.170     141.682
  O      131.579     -17.253     142.004
  C      133.180     -15.900     140.848
  O      133.024     -16.145     139.454
  C      132.046     -15.008     141.329
  O      131.705     -13.989     140.393
  C      130.945     -16.039     141.563
  N      126.823     -13.201     142.518
  C      127.613     -13.241     141.387
  N      127.272     -12.399     140.386
  N      128.651     -14.024     141.256
  C      128.917     -14.758     142.364
  C      128.224     -14.785     143.552
  C      127.053     -13.943     143.669
  O      126.328     -13.852     144.656
  N      128.807     -15.641     144.454
  C      129.854     -16.124     143.816
  N      129.956     -15.629     142.538
  O      135.656     -18.944     142.531
  O      134.973     -20.325     144.580
  H      131.388     -14.430     139.582
  H      136.428     -18.759     143.094
  H      126.026     -12.590     142.561
  H      130.561     -16.833     144.228
  H      130.413     -16.258     140.628
  H      132.368     -14.509     142.248
  H      126.596     -11.660     140.509
  H      134.154     -15.439     141.021
  H      127.994     -12.205     139.688
  H      133.244     -18.081     141.130
  H      134.876     -17.038     142.740
  H      133.553     -16.184     143.536
  P      134.065     -15.445     138.457
  C      134.287     -17.260     136.576
  O      133.780     -16.002     136.981
  O      135.467     -16.097     138.860
  O      134.086     -13.957     138.560
  H      136.005     -15.457     139.363
  H      133.993     -17.455     135.566
  H      133.896     -18.024     137.215
  H      135.355     -17.252     136.641

 6  7  8  9  10  11  12  13  14  15  26  29  33  34 0
 6-311+G(2d,p)
 ****
 36  38  39  40  41 0
 6-311+G(2d,p)
 ****
 1  2  3  4  5  16  17  18  19  20  21  22  23  24  25 0
 3-21G
 ****
 27  28  30  31  32  35  37  42  43  44  45  46  47 0
 3-21G
 ****
 48  49 0
 3-21G
 ****


