%nproc=1
%NoSave
%Mem=1900MB
#P OB98/GEN NMR

erre ene a

0 1
  C       57.551    -171.141      13.148
  O       56.944    -171.954      14.151
  P       57.237    -173.532      14.150
  C       56.659    -175.509      12.600
  O       56.273    -174.221      13.066
  C       55.433    -176.339      12.208
  O       54.665    -176.735      13.361
  C       54.462    -175.585      11.313
  O       54.961    -175.478       9.993
  C       53.201    -176.428      11.466
  O       53.238    -177.570      10.594
  C       53.290    -176.883      12.941
  N       52.381    -176.162      13.821
  C       51.071    -176.653      13.887
  O       50.733    -177.613      13.195
  N       50.177    -176.030      14.725
  C       50.556    -175.004      15.426
  N       49.630    -174.429      16.239
  C       51.924    -174.450      15.377
  C       52.773    -175.066      14.555
  O       57.260    -174.186      15.492
  O       58.674    -173.624      13.437
  H       54.169    -177.865      10.575
  H       59.151    -174.402      13.787
  H       52.192    -173.596      15.984
  H       53.797    -174.722      14.456
  H       53.056    -177.952      13.024
  H       52.299    -175.860      11.216
  H       54.285    -174.581      11.726
  H       55.783    -177.246      11.693
  H       48.695    -174.822      16.250
  H       57.224    -176.028      13.383
  H       49.840    -173.661      16.862
  H       57.343    -175.388      11.749
  P       55.750    -174.137       9.599
  C       55.195    -171.608       9.481
  O       54.703    -172.926       9.634
  O       56.037    -174.335       8.033
  O       57.023    -173.912      10.356
  H       56.891    -173.927       7.802
  H       54.356    -170.954       9.213
  H       55.951    -171.551       8.691
  H       55.623    -171.261      10.424
  H       57.256    -170.122      13.288
  H       57.236    -171.473      12.181
  H       58.616    -171.218      13.223

 3  4  5  6  7  8  9  10  11  12  13  23  27  28  29  30  32 0
 6-311+G(2d,p)
 ****
 34  35 0
 6-311+G(2d,p)
 ****
 1  2  14  15  16  17  18  19  20  21  22  24  25  26 0
 3-21G
 ****
 31  33  36  37  38  39  40  41  42  43  44  45  46 0
 3-21G
 ****


