%nproc=1
%NoSave
%Mem=1900MB
#P OB98/GEN NMR

erre ene a

0 1
  C     1143.224     412.440     398.154
  O     1144.240     412.473     397.175
  H     1143.604     412.812     399.106
  H     1142.396     413.078     397.827
  H     1142.853     411.417     398.274
  P     1145.569     411.631     397.479
  C     1146.594     413.522     398.925
  O     1146.740     412.687     397.788
  C     1147.538     414.713     398.821
  O     1148.904     414.233     398.922
  C     1147.417     415.520     397.517
  O     1147.109     416.886     397.812
  C     1148.806     415.465     396.899
  O     1149.212     416.694     396.314
  C     1149.696     415.066     398.074
  N     1154.313     415.697     396.026
  C     1153.527     416.541     396.713
  N     1152.350     416.288     397.321
  C     1152.024     414.982     397.199
  C     1152.752     413.999     396.551
  C     1153.941     414.394     395.931
  N     1154.723     413.548     395.177
  N     1152.091     412.789     396.627
  C     1150.975     413.044     397.269
  N     1150.879     414.364     397.622
  O     1145.964     411.036     396.045
  O     1145.416     410.548     398.500
  H     1148.553     416.905     395.621
  H     1146.155     410.086     396.127
  H     1153.877     417.576     396.767
  H     1150.183     412.337     397.476
  H     1150.017     415.941     398.665
  H     1148.813     414.684     396.118
  H     1146.666     415.109     396.836
  H     1147.369     415.364     399.687
  H     1146.843     412.946     399.836
  H     1155.495     413.952     394.669
  H     1154.387     412.611     395.011
  H     1145.551     413.853     398.999
  P     1145.551     417.276     397.870
  C     1145.324     417.359     395.276
  O     1145.200     418.055     396.513
  O     1145.511     418.436     398.977
  O     1144.649     416.137     398.213
  H     1144.631     418.466     399.403
  H     1145.056     418.011     394.471
  H     1144.674     416.509     395.278
  H     1146.336     417.034     395.150

 6  7  8  9  10  11  12  13  14  15  25  28  32  33  34  35 0
 6-311+G(2d,p)
 ****
 36  39  40 0
 6-311+G(2d,p)
 ****
 1  2  3  4  5  16  17  18  19  20  21  22  23  24 0
 3-21G
 ****
 26  27  29  30  31  37  38  41  42  43  44  45  46  47  48 0
 3-21G
 ****


