%nproc=1
%NoSave
%Mem=1900MB
#P OB98/GEN NMR

erre ene a

0 1
  C     -930.235     155.186    -648.401
  O     -930.144     155.630    -649.741
  H     -929.509     154.376    -648.259
  H     -931.237     154.787    -648.203
  H     -930.000     155.995    -647.707
  P     -930.974     156.940    -650.174
  C     -928.836     158.195    -650.899
  O     -930.107     157.685    -651.298
  C     -927.952     158.466    -652.127
  O     -927.485     157.178    -652.651
  C     -928.678     159.188    -653.293
  O     -927.683     159.958    -653.980
  C     -929.136     158.007    -654.128
  O     -929.606     158.385    -655.396
  C     -927.871     157.133    -654.049
  N     -928.038     155.758    -654.498
  C     -926.964     155.148    -655.158
  O     -925.884     155.706    -655.382
  N     -927.173     153.852    -655.566
  C     -928.307     153.122    -655.384
  O     -928.426     151.962    -655.736
  C     -929.410     153.819    -654.682
  C     -929.216     155.071    -654.270
  O     -931.450     157.808    -649.055
  O     -932.200     156.339    -651.022
  H     -933.002     156.335    -650.466
  H     -928.897     158.868    -655.870
  H     -926.398     153.411    -656.033
  H     -930.323     153.264    -654.543
  H     -930.007     155.608    -653.759
  H     -927.074     157.606    -654.625
  H     -929.985     157.507    -653.635
  H     -929.475     159.847    -652.943
  H     -927.059     159.013    -651.806
  H     -928.351     157.459    -650.251
  H     -928.976     159.132    -650.334
  P     -928.024     160.971    -655.194
  C     -927.384     163.097    -653.862
  O     -927.124     162.296    -655.009
  O     -929.489     161.250    -655.351
  O     -927.439     160.263    -656.505
  H     -927.931     160.565    -657.285
  H     -926.724     163.939    -653.858
  H     -927.226     162.516    -652.978
  H     -928.398     163.439    -653.888

 6  7  8  9  10  11  12  13  14  15  16  27  31  32  33  34  35 0
 6-311+G(2d,p)
 ****
 36  37 0
 6-311+G(2d,p)
 ****
 1  2  3  4  5  17  18  19  20  21  22  23  24  25 0
 3-21G
 ****
 26  28  29  30  38  39  40  41  42  43  44  45 0
 3-21G
 ****


