%nproc=1
%NoSave
%Mem=1900MB
#P OB98/GEN NMR

erre ene a

0 1
  C      192.173      40.943      25.917
  O      192.628      39.886      26.736
  H      191.476      41.556      26.491
  H      191.651      40.538      25.046
  H      193.011      41.565      25.595
  P      193.739      38.909      26.112
  C      195.847      40.279      26.750
  O      194.986      39.841      25.709
  C      197.303      40.257      26.293
  O      197.542      41.409      25.428
  C      198.327      40.324      27.437
  O      199.462      39.532      27.063
  C      198.747      41.785      27.430
  O      200.013      41.995      28.051
  C      198.721      42.067      25.930
  N      201.490      46.265      26.082
  C      201.819      44.961      26.399
  N      203.083      44.738      26.821
  N      200.984      43.961      26.306
  C      199.763      44.325      25.839
  C      199.311      45.576      25.497
  C      200.240      46.679      25.629
  O      200.001      47.857      25.384
  N      197.999      45.533      25.094
  C      197.664      44.260      25.189
  N      198.700      43.488      25.638
  O      193.096      38.508      24.702
  O      194.075      37.712      26.935
  H      199.951      41.678      28.975
  H      192.600      37.673      24.782
  H      202.167      47.000      26.184
  H      196.691      43.849      24.953
  H      199.593      41.650      25.412
  H      198.002      42.396      27.957
  H      203.794      45.450      26.872
  H      197.944      39.991      28.407
  H      203.356      43.781      27.016
  H      197.463      39.363      25.679
  H      195.731      39.609      27.610
  H      195.564      41.293      27.049
  P      199.429      37.966      27.396
  C      198.946      37.186      24.962
  O      198.497      37.247      26.308
  O      198.533      37.903      28.724
  O      200.772      37.354      27.609
  H      198.783      37.127      29.255
  H      198.217      36.679      24.365
  H      199.874      36.655      24.919
  H      199.086      38.178      24.587

 6  7  8  9  10  11  12  13  14  15  26  29  33  34 0
 6-311+G(2d,p)
 ****
 36  38  39  40  41 0
 6-311+G(2d,p)
 ****
 1  2  3  4  5  16  17  18  19  20  21  22  23  24  25 0
 3-21G
 ****
 27  28  30  31  32  35  37  42  43  44  45  46  47 0
 3-21G
 ****
 48  49 0
 3-21G
 ****


