%nproc=1
%NoSave
%Mem=1900MB
#P OB98/GEN NMR

erre ene a

0 1
  C     1951.667     678.950     982.070
  O     1952.737     679.753     981.534
  P     1954.152     679.768     982.312
  C     1955.544     678.748     980.393
  O     1955.098     678.582     981.735
  C     1955.787     677.373     979.733
  O     1956.965     676.717     980.324
  C     1954.583     676.398     979.908
  O     1954.493     675.531     978.780
  C     1955.062     675.549     981.116
  O     1954.336     674.313     981.143
  C     1956.559     675.453     980.808
  N     1957.404     671.876     984.419
  C     1956.617     671.872     983.326
  N     1956.471     672.850     982.407
  C     1957.249     673.900     982.674
  C     1958.155     674.033     983.742
  C     1958.213     672.961     984.629
  N     1959.033     672.952     985.740
  N     1958.784     675.280     983.698
  C     1958.251     675.885     982.648
  N     1957.310     675.069     981.987
  O     1954.074     679.792     983.796
  O     1954.897     681.084     981.749
  H     1953.421     674.500     981.017
  H     1955.277     681.571     982.490
  H     1956.019     670.990     983.159
  H     1958.511     676.879     982.377
  H     1956.779     674.705     980.022
  H     1954.898     676.108     982.021
  H     1953.647     676.888     980.088
  H     1956.018     677.524     978.679
  H     1956.482     679.320     980.370
  H     1958.947     672.209     986.396
  H     1959.507     673.797     986.039
  H     1954.801     679.335     979.826
  P     1953.284     675.869     977.762
  C     1955.093     675.894     975.821
  O     1953.936     676.514     976.476
  O     1952.162     676.643     978.402
  O     1952.849     674.393     977.294
  H     1953.569     673.835     976.967
  H     1955.285     676.452     974.931
  H     1954.825     674.869     975.628
  H     1955.946     675.981     976.524
  H     1950.803     679.045     981.446
  H     1951.432     679.284     983.059
  H     1951.972     677.925     982.102

 3  4  5  6  7  8  9  10  11  12  22  25  29  30  31  32 0
 6-311+G(2d,p)
 ****
 33  36  37 0
 6-311+G(2d,p)
 ****
 1  2  13  14  15  16  17  18  19  20  21  23  24  26 0
 3-21G
 ****
 27  28  34  35  38  39  40  41  42  43  44  45  46  47  48 0
 3-21G
 ****


