%nproc=1
%NoSave
%Mem=1900MB
#P OB98/GEN NMR

erre ene a

0 1
  C     -242.908     379.630     212.498
  O     -241.580     379.629     211.941
  P     -240.253     379.844     212.818
  C     -239.991     377.300     213.204
  O     -239.381     378.498     212.743
  C     -238.999     376.481     214.048
  O     -239.664     375.317     214.610
  C     -237.816     375.903     213.289
  O     -236.863     376.886     212.947
  C     -237.311     374.852     214.270
  O     -236.441     375.434     215.254
  C     -238.618     374.372     214.939
  N     -238.996     373.020     214.561
  C     -238.451     371.983     215.319
  O     -237.638     372.222     216.207
  N     -238.846     370.691     215.037
  C     -239.620     370.461     214.028
  N     -239.978     369.163     213.808
  C     -240.094     371.515     213.117
  C     -239.752     372.761     213.438
  O     -240.515     380.309     214.213
  O     -239.380     380.914     212.007
  H     -238.805     381.400     212.625
  H     -235.641     375.736     214.776
  H     -240.706     371.267     212.253
  H     -240.075     373.600     212.831
  H     -238.528     374.421     216.034
  H     -236.751     374.048     213.778
  H     -238.184     375.408     212.380
  H     -238.648     377.115     214.881
  H     -239.648     368.467     214.457
  H     -240.289     376.700     212.338
  H     -240.599     368.881     213.063
  H     -240.886     377.548     213.786
  P     -236.075     376.693     211.565
  C     -238.173     376.650     210.038
  O     -236.976     377.307     210.396
  O     -236.143     375.110     211.310
  O     -234.662     377.173     211.586
  H     -235.299     374.798     210.937
  H     -238.872     377.380     209.627
  H     -238.638     376.154     210.900
  H     -237.962     375.895     209.266
  H     -243.622     379.468     211.718
  H     -243.098     380.574     212.965
  H     -242.990     378.849     213.225

 3  4  5  6  7  8  9  10  11  12  13  24  27  28  29  30  32 0
 6-311+G(2d,p)
 ****
 34  35 0
 6-311+G(2d,p)
 ****
 1  2  14  15  16  17  18  19  20  21  22  23  25  26 0
 3-21G
 ****
 31  33  36  37  38  39  40  41  42  43  44  45  46 0
 3-21G
 ****


