%nproc=1
%NoSave
%Mem=1900MB
#P OB98/GEN NMR

erre ene a

0 1
  C     1414.102    -187.818    1361.746
  O     1413.733    -186.486    1362.098
  P     1414.882    -185.508    1362.654
  C     1414.740    -183.686    1360.752
  O     1415.468    -184.741    1361.363
  C     1415.410    -182.343    1361.058
  O     1416.759    -182.339    1360.606
  C     1414.723    -181.127    1360.404
  O     1413.531    -180.748    1361.058
  C     1415.854    -180.103    1360.466
  O     1415.917    -179.505    1361.775
  C     1417.095    -180.975    1360.223
  N     1417.615    -180.907    1358.866
  C     1418.896    -180.382    1358.719
  O     1419.590    -180.003    1359.694
  N     1419.375    -180.294    1357.434
  C     1418.660    -180.593    1356.287
  O     1419.132    -180.452    1355.193
  C     1417.311    -181.096    1356.521
  C     1416.837    -181.227    1357.752
  O     1416.019    -186.564    1363.045
  O     1414.407    -184.627    1363.762
  H     1415.965    -187.392    1362.517
  H     1416.007    -180.230    1362.430
  H     1420.298    -179.935    1357.314
  H     1416.708    -181.367    1355.646
  H     1415.845    -181.584    1357.929
  H     1417.928    -180.677    1360.913
  H     1415.735    -179.298    1359.747
  H     1414.516    -181.363    1359.318
  H     1415.418    -182.192    1362.167
  H     1413.697    -183.662    1361.137
  H     1414.722    -183.843    1359.671
  P     1412.519    -179.830    1360.206
  C     1411.094    -181.611    1358.931
  O     1412.124    -180.694    1358.881
  O     1413.491    -178.663    1359.709
  O     1411.335    -179.373    1361.044
  H     1414.341    -179.002    1359.395
  H     1410.776    -181.808    1357.896
  H     1410.246    -181.252    1359.515
  H     1411.445    -182.566    1359.359
  H     1413.240    -188.346    1361.395
  H     1414.501    -188.316    1362.605
  H     1414.842    -187.791    1360.974

 3  4  5  6  7  8  9  10  11  12  13  24  28  29  30  31  32 0
 6-311+G(2d,p)
 ****
 33  34 0
 6-311+G(2d,p)
 ****
 1  2  14  15  16  17  18  19  20  21  22  23  25  26  27 0
 3-21G
 ****
 35  36  37  38  39  40  41  42  43  44  45 0
 3-21G
 ****


