%nproc=1
%NoSave
%Mem=1900MB
#P OB98/GEN NMR

erre ene a

0 1
  C     -890.110    -789.091     481.375
  O     -890.620    -787.788     480.997
  P     -892.010    -787.790     480.222
  C     -892.760    -785.466     481.102
  O     -893.060    -786.865     481.024
  C     -893.230    -784.896     482.453
  O     -894.630    -785.090     482.645
  C     -892.470    -785.474     483.654
  O     -892.350    -784.431     484.646
  C     -893.470    -786.527     484.184
  O     -893.190    -786.842     485.548
  C     -894.800    -785.775     483.916
  N     -895.930    -786.691     483.897
  C     -897.000    -786.435     484.777
  O     -896.910    -785.516     485.571
  N     -898.090    -787.253     484.722
  C     -898.120    -788.254     483.912
  N     -899.250    -789.022     483.937
  C     -897.010    -788.601     483.026
  C     -895.960    -787.773     483.058
  O     -892.590    -789.268     480.418
  O     -891.880    -787.453     478.753
  H     -892.340    -787.347     485.583
  H     -892.860    -789.639     479.585
  H     -897.080    -789.468     482.392
  H     -895.100    -787.950     482.426
  H     -894.990    -785.033     484.703
  H     -893.400    -787.433     483.576
  H     -891.490    -785.899     483.414
  H     -893.050    -783.805     482.427
  H     -900.000    -788.744     484.573
  H     -893.260    -784.924     480.299
  H     -899.370    -789.853     483.363
  H     -891.690    -785.329     480.951
  P     -890.980    -783.611     484.660
  C     -891.940    -781.525     483.495
  O     -891.080    -782.631     483.396
  O     -889.920    -784.704     484.184
  O     -890.570    -782.969     485.957
  H     -889.040    -784.307     484.219
  H     -891.820    -780.904     482.581
  H     -891.710    -780.971     484.375
  H     -892.990    -781.854     483.535
  H     -889.178    -788.974     481.887
  H     -889.963    -789.685     480.497
  H     -890.813    -789.576     482.020

 3  4  5  6  7  8  9  10  11  12  13  21  23  27  28  29  30  32 0
 6-311+G(2d,p)
 ****
 34  35 0
 6-311+G(2d,p)
 ****
 1  2  14  15  16  17  18  19  20  22  24  25  26 0
 3-21G
 ****
 31  33  36  37  38  39  40  41  42  43  44  45  46 0
 3-21G
 ****


