%nproc=1
%NoSave
%Mem=1900MB
#P OB98/GEN NMR

erre ene a

0 1
  C       27.992     -13.898      20.187
  O       28.136     -13.392      21.499
  H       27.537     -13.127      19.562
  H       27.344     -14.778      20.192
  H       28.969     -14.159      19.772
  P       28.811     -14.370      22.577
  C       27.783     -12.950      24.497
  O       27.939     -14.239      23.916
  C       26.777     -13.021      25.641
  O       25.437     -13.124      25.107
  C       26.951     -14.237      26.540
  O       28.012     -14.080      27.463
  C       25.582     -14.314      27.196
  O       25.487     -13.427      28.317
  C       24.646     -13.855      26.073
  N       20.598     -16.955      26.299
  C       20.951     -15.877      27.032
  N       22.043     -15.096      26.900
  C       22.796     -15.507      25.866
  C       22.562     -16.583      25.028
  C       21.398     -17.329      25.274
  N       21.050     -18.440      24.544
  N       23.583     -16.713      24.108
  C       24.414     -15.727      24.379
  N       23.978     -14.970      25.431
  O       30.179     -13.622      22.937
  O       29.047     -15.765      22.105
  H       24.561     -13.473      28.624
  H       30.914     -14.034      22.446
  H       20.272     -15.615      27.839
  H       25.339     -15.527      23.853
  H       23.866     -13.175      26.435
  H       25.378     -15.324      27.553
  H       27.100     -15.138      25.931
  H       26.842     -12.093      26.223
  H       27.417     -12.252      23.737
  H       28.757     -12.604      24.858
  H       20.237     -18.967      24.819
  H       21.698     -18.794      23.852
  P       28.077     -15.093      28.704
  C       29.695     -13.526      30.017
  O       28.462     -14.234      29.999
  O       29.389     -15.964      28.419
  O       26.868     -15.950      28.868
  H       29.250     -16.882      28.721
  H       29.795     -13.008      30.948
  H       29.713     -12.820      29.213
  H       30.504     -14.217      29.904

 6  7  8  9  10  11  12  13  14  15  25  28  32  33  34  35 0
 6-311+G(2d,p)
 ****
 36  37  40 0
 6-311+G(2d,p)
 ****
 1  2  3  4  5  16  17  18  19  20  21  22  23  24 0
 3-21G
 ****
 26  27  29  30  31  38  39 41  42  43  44  45  46  47  48 0
 3-21G
 ****


