%nproc=1
%NoSave
%Mem=1900MB
#P OB98/GEN NMR

erre ene a

0 1
  C     -969.620    -807.340    -192.027
  O     -970.025    -806.878    -190.749
  H     -968.539    -807.203    -192.129
  H     -970.113    -806.774    -192.822
  H     -969.852    -808.408    -192.131
  P     -971.599    -806.827    -190.422
  C     -971.144    -809.027    -189.138
  O     -971.999    -808.333    -190.040
  C     -971.833    -809.178    -187.777
  O     -973.014    -809.987    -187.912
  C     -970.953    -809.885    -186.743
  O     -969.963    -809.015    -186.242
  C     -972.011    -810.320    -185.741
  O     -972.396    -809.248    -184.876
  C     -973.175    -810.733    -186.669
  N     -973.232    -812.173    -186.930
  C     -974.153    -812.891    -186.180
  O     -974.876    -812.312    -185.357
  N     -974.242    -814.246    -186.356
  C     -973.464    -814.841    -187.222
  N     -973.586    -816.181    -187.352
  C     -972.479    -814.101    -188.033
  C     -972.404    -812.792    -187.853
  O     -972.480    -806.187    -191.457
  O     -971.656    -806.066    -189.016
  H     -973.051    -809.611    -184.273
  H     -971.739    -805.100    -189.150
  H     -971.852    -814.620    -188.757
  H     -971.704    -812.179    -188.415
  H     -974.143    -810.417    -186.247
  H     -971.651    -811.144    -185.113
  H     -970.505    -810.784    -187.179
  H     -972.126    -808.187    -187.422
  H     -974.254    -816.636    -186.758
  H     -970.217    -808.436    -189.031
  H     -973.108    -816.733    -188.066
  H     -970.876    -810.012    -189.526
  P     -968.545    -809.584    -185.771
  C     -967.203    -808.368    -187.618
  O     -967.628    -809.624    -187.105
  O     -968.592    -810.865    -185.006
  O     -967.895    -808.366    -184.954
  H     -968.323    -808.269    -184.064
  H     -966.608    -808.523    -188.494
  H     -966.622    -807.859    -186.878
  H     -968.059    -807.777    -187.868

 6  7  8  9  10  11  12  13  14  15  16  26  30  31  32  33  35 0
 6-311+G(2d,p)
 ****
 37  38 0
 6-311+G(2d,p)
 ****
 1  2  3  4  5  17  18  19  20  21  22  23  24  25 0
 3-21G
 ****
 27  28  29  34  36  39  40  41  42  43  44  45  46 0
 3-21G
 ****


