%nproc=1
%NoSave
%Mem=1900MB
#P OB98/GEN NMR

erre ene a

0 1
  C     -475.244    -261.089    -165.525
  O     -474.674    -262.298    -165.985
  H     -476.328    -261.141    -165.652
  H     -474.863    -260.246    -166.108
  H     -475.018    -260.943    -164.465
  P     -473.074    -262.408    -165.905
  C     -473.073    -263.266    -168.355
  O     -472.544    -262.335    -167.421
  C     -472.381    -263.118    -169.707
  O     -472.821    -261.909    -170.374
  C     -470.862    -263.046    -169.633
  O     -470.289    -264.339    -169.545
  C     -470.533    -262.343    -170.946
  O     -470.544    -263.263    -172.056
  C     -471.683    -261.331    -171.065
  N     -470.278    -256.614    -172.188
  C     -470.552    -257.683    -173.019
  N     -470.379    -257.475    -174.344
  N     -470.953    -258.850    -172.590
  C     -471.051    -258.916    -171.239
  C     -470.821    -257.925    -170.312
  C     -470.409    -256.628    -170.803
  O     -470.210    -255.621    -170.127
  N     -471.048    -258.368    -169.036
  C     -471.374    -259.641    -169.186
  N     -471.374    -260.023    -170.504
  O     -472.823    -263.942    -165.508
  O     -472.415    -261.477    -164.946
  H     -469.887    -263.966    -171.894
  H     -472.005    -264.003    -164.979
  H     -469.987    -255.731    -172.580
  H     -471.620    -260.317    -168.384
  H     -471.979    -261.168    -172.106
  H     -469.537    -261.893    -170.924
  H     -469.767    -256.748    -174.689
  H     -470.543    -262.414    -168.794
  H     -470.558    -258.263    -174.953
  H     -472.694    -263.965    -170.336
  H     -474.147    -263.080    -168.477
  H     -472.929    -264.283    -167.971
  P     -468.783    -264.457    -169.002
  C     -467.986    -265.747    -171.118
  O     -467.842    -264.595    -170.295
  O     -468.733    -265.921    -168.358
  O     -468.390    -263.397    -168.026
  H     -467.968    -265.997    -167.764
  H     -467.294    -265.692    -171.932
  H     -468.984    -265.790    -171.500
  H     -467.788    -266.625    -170.540

 6  7  8  9  10  11  12  13  14  15  26  29  33  34 0
 6-311+G(2d,p)
 ****
 36  38  39  40  41 0
 6-311+G(2d,p)
 ****
 1  2  3  4  5  16  17  18  19  20  21  22  23  24  25 0
 3-21G
 ****
 27  28  30  31  32  35  37  42  43  44  45  46  47 0
 3-21G
 ****
 48  49 0
 3-21G
 ****


