%nproc=1
%NoSave
%Mem=1900MB
#P OB98/GEN NMR

erre ene a

0 1
  C     1595.105    -102.573    1230.449
  O     1594.214    -102.671    1231.558
  P     1594.496    -103.812    1232.652
  C     1595.497    -102.112    1234.410
  O     1595.689    -103.250    1233.577
  C     1595.461    -102.538    1235.878
  O     1596.537    -103.424    1236.168
  C     1595.568    -101.372    1236.881
  O     1594.371    -100.635    1237.002
  C     1596.008    -102.121    1238.134
  O     1594.870    -102.725    1238.782
  C     1596.918    -103.211    1237.559
  N     1598.342    -102.932    1237.690
  C     1598.775    -102.477    1238.932
  O     1598.001    -102.328    1239.905
  N     1600.115    -102.187    1239.042
  C     1601.034    -102.226    1238.007
  O     1602.181    -101.921    1238.168
  C     1600.496    -102.671    1236.729
  C     1599.216    -102.995    1236.597
  O     1595.186    -104.938    1231.748
  O     1593.262    -104.229    1233.388
  H     1595.633    -104.571    1230.959
  H     1595.185    -103.132    1239.616
  H     1600.441    -101.878    1239.928
  H     1601.190    -102.740    1235.879
  H     1598.818    -103.314    1235.664
  H     1596.730    -104.198    1238.063
  H     1596.493    -101.481    1238.864
  H     1596.416    -100.693    1236.560
  H     1594.505    -103.084    1236.071
  H     1594.533    -101.613    1234.156
  H     1596.317    -101.408    1234.254
  P     1594.517     -99.134    1237.561
  C     1594.138     -98.107    1235.188
  O     1594.967     -98.218    1236.289
  O     1595.804     -99.262    1238.494
  O     1593.250     -98.668    1238.267
  H     1596.509     -99.782    1238.087
  H     1594.451     -97.201    1234.638
  H     1593.089     -98.023    1235.468
  H     1594.274     -98.970    1234.515
  H     1594.793    -101.774    1229.810
  H     1595.095    -103.492    1229.901
  H     1596.096    -102.380    1230.804

 3  4  5  6  7  8  9  10  11  12  13  24  28  29  30  31  32 0
 6-311+G(2d,p)
 ****
 33  34 0
 6-311+G(2d,p)
 ****
 1  2  14  15  16  17  18  19  20  21  22  23  25  26  27 0
 3-21G
 ****
 35  36  37  38  39  40  41  42  43  44  45 0
 3-21G
 ****


