%nproc=1
%NoSave
%Mem=1900MB
#P OB98/GEN NMR

erre ene a

0 1
  C     1112.221    -206.276     -34.875
  O     1112.158    -207.628     -35.266
  H     1111.317    -206.038     -34.306
  H     1112.251    -205.639     -35.762
  H     1113.091    -206.080     -34.248
  P     1113.505    -208.364     -35.718
  C     1113.720    -210.150     -33.869
  O     1113.422    -209.893     -35.231
  C     1113.674    -211.647     -33.538
  O     1112.306    -212.105     -33.498
  C     1114.373    -212.489     -34.613
  O     1115.779    -212.613     -34.469
  C     1113.690    -213.845     -34.434
  O     1114.331    -214.614     -33.400
  C     1112.268    -213.450     -34.014
  N     1109.317    -216.449     -36.914
  C     1110.230    -216.810     -35.928
  N     1110.411    -218.138     -35.739
  N     1110.896    -215.943     -35.222
  C     1110.683    -214.654     -35.590
  C     1109.819    -214.184     -36.550
  C     1109.038    -215.151     -37.293
  O     1108.228    -214.888     -38.178
  N     1109.865    -212.805     -36.640
  C     1110.805    -212.465     -35.784
  N     1111.315    -213.546     -35.098
  O     1114.616    -207.749     -34.733
  O     1113.894    -208.164     -37.151
  H     1113.774    -215.384     -33.202
  H     1115.494    -207.790     -35.153
  H     1108.814    -217.157     -37.402
  H     1111.138    -211.446     -35.599
  H     1111.901    -214.088     -33.200
  H     1113.736    -214.439     -35.352
  H     1110.006    -218.836     -36.340
  H     1114.138    -212.113     -35.614
  H     1111.248    -218.433     -35.227
  H     1114.108    -211.815     -32.548
  H     1112.975    -209.616     -33.275
  H     1114.696    -209.732     -33.608
  P     1116.725    -212.566     -35.761
  C     1118.232    -210.660     -34.834
  O     1118.143    -211.996     -35.286
  O     1116.095    -211.364     -36.624
  O     1116.782    -213.832     -36.542
  H     1115.490    -211.724     -37.296
  H     1119.243    -210.444     -34.557
  H     1117.594    -210.527     -33.986
  H     1117.927    -209.998     -35.617

 6  7  8  9  10  11  12  13  14  15  26  29  33  34 0
 6-311+G(2d,p)
 ****
 36  38  39  40  41 0
 6-311+G(2d,p)
 ****
 1  2  3  4  5  16  17  18  19  20  21  22  23  24  25 0
 3-21G
 ****
 27  28  30  31  32  35  37  42  43  44  45  46  47 0
 3-21G
 ****
 48  49 0
 3-21G
 ****


