%nproc=1
%NoSave
%Mem=1900MB
#P OB98/GEN NMR

erre ene a

0 1
  C      125.675       6.953      -0.997
  O      125.706       8.350      -0.778
  P      127.026       9.061      -0.222
  C      125.679       9.618       1.884
  O      126.909       9.114       1.379
  C      125.727       9.783       3.402
  O      125.942       8.481       4.013
  C      126.836      10.715       3.911
  O      126.322      11.371       5.073
  C      127.930       9.742       4.318
  O      128.858      10.305       5.237
  C      127.086       8.605       4.883
  N      130.047       5.578       7.745
  C      129.535       6.805       7.970
  N      128.776       7.557       7.147
  C      128.556       6.918       5.987
  C      129.038       5.678       5.602
  C      129.807       4.982       6.552
  N      130.309       3.715       6.353
  N      128.643       5.389       4.310
  C      127.938       6.432       3.927
  N      127.806       7.352       4.930
  O      127.366      10.365      -0.863
  O      128.180       7.980      -0.464
  H      129.341      11.023       4.787
  H      128.743       8.258      -1.213
  H      129.758       7.239       8.941
  H      127.507       6.574       2.946
  H      126.722       8.824       5.894
  H      128.487       9.421       3.430
  H      127.177      11.445       3.172
  H      124.746      10.138       3.738
  H      124.890       8.906       1.624
  H      130.730       3.259       7.146
  H      129.929       3.150       5.596
  H      125.448      10.578       1.408
  P      126.864      12.825       5.476
  C      128.314      11.727       7.275
  O      128.292      12.604       6.164
  O      125.907      13.675       6.242
  O      127.242      13.485       4.063
  H      127.316      14.454       4.166
  H      127.975      12.261       8.166
  H      129.340      11.383       7.435
  H      127.670      10.860       7.106
  H      124.711       6.671      -1.367
  H      125.866       6.443      -0.076
  H      126.424       6.688      -1.713

 3  4  5  6  7  8  9  10  11  12  22  25  29  30  31  32 0
 6-311+G(2d,p)
 ****
 33  36  37 0
 6-311+G(2d,p)
 ****
 1  2  13  14  15  16  17  18  19  20  21  23  24  26 0
 3-21G
 ****
 27  28  34  35  38  39  40  41  42  43  44  45  46  47  48 0
 3-21G
 ****


