%nproc=1
%NoSave
%Mem=1900MB
#P OB98/GEN NMR

erre ene a

0 1
  C      -46.389    -188.943     -98.626
  O      -45.320    -189.783     -98.244
  H      -46.959    -188.674     -97.733
  H      -47.053    -189.469     -99.316
  H      -46.019    -188.027     -99.093
  P      -44.207    -190.162     -99.333
  C      -44.340    -192.737     -99.278
  O      -43.600    -191.582     -98.902
  C      -43.987    -193.902     -98.357
  O      -44.820    -195.042     -98.658
  C      -42.550    -194.390     -98.496
  O      -41.651    -193.505     -97.856
  C      -42.657    -195.769     -97.860
  O      -42.626    -195.674     -96.428
  C      -44.049    -196.228     -98.354
  N      -43.985    -197.120     -99.511
  C      -43.802    -198.473     -99.240
  O      -43.659    -198.916     -98.103
  N      -43.769    -199.301    -100.331
  C      -43.816    -198.906    -101.638
  O      -43.729    -199.685    -102.582
  C      -43.975    -197.462    -101.864
  C      -44.052    -196.650    -100.808
  O      -43.191    -189.107     -99.618
  O      -45.065    -190.521    -100.637
  H      -43.296    -195.008     -96.178
  H      -45.062    -189.764    -101.252
  H      -43.624    -200.282    -100.156
  H      -44.010    -197.113    -102.887
  H      -44.163    -195.581    -100.955
  H      -44.583    -196.750     -97.550
  H      -41.840    -196.430     -98.149
  H      -42.291    -194.511     -99.555
  H      -44.197    -193.596     -97.324
  H      -44.085    -192.997    -100.311
  H      -45.409    -192.507     -99.221
  P      -40.364    -192.946     -98.624
  C      -38.597    -193.897     -97.031
  O      -39.210    -192.715     -97.531
  O      -40.614    -191.781     -99.522
  O      -39.830    -194.208     -99.452
  H      -40.039    -194.095    -100.400
  H      -37.847    -193.634     -96.314
  H      -38.145    -194.434     -97.839
  H      -39.337    -194.512     -96.564

 6  7  8  9  10  11  12  13  14  15  16  26  31  32  33  34  35 0
 6-311+G(2d,p)
 ****
 36  37 0
 6-311+G(2d,p)
 ****
 1  2  3  4  5  17  18  19  20  21  22  23  24  25 0
 3-21G
 ****
 27  28  29  30  38  39  40  41  42  43  44  45 0
 3-21G
 ****


