%nproc=1
%NoSave
%Mem=1900MB
#P OB98/GEN NMR

erre ene a

0 1
  C      389.888    -567.746    -565.665
  O      389.101    -566.594    -565.918
  H      389.819    -568.411    -566.531
  H      389.508    -568.272    -564.782
  H      390.933    -567.466    -565.513
  P      389.080    -565.481    -564.762
  C      390.433    -563.627    -566.001
  O      390.406    -564.605    -564.971
  C      391.363    -562.472    -565.615
  O      390.921    -561.914    -564.347
  C      392.835    -562.891    -565.427
  O      393.659    -561.762    -565.747
  C      392.886    -563.157    -563.928
  O      394.219    -563.248    -563.480
  C      392.042    -561.986    -563.439
  N      392.273    -560.077    -558.704
  C      392.803    -559.652    -559.869
  N      392.687    -560.203    -561.088
  C      391.914    -561.308    -561.044
  C      391.299    -561.854    -559.935
  C      391.505    -561.192    -558.710
  N      390.977    -561.625    -557.520
  N      390.589    -562.989    -560.279
  C      390.771    -563.117    -561.578
  N      391.576    -562.129    -562.081
  O      389.382    -566.322    -563.435
  O      387.819    -564.693    -564.654
  H      394.612    -564.108    -563.733
  H      388.545    -566.559    -562.993
  H      393.405    -558.748    -559.812
  H      390.359    -563.910    -562.190
  H      392.588    -561.036    -563.508
  H      392.409    -564.112    -563.685
  H      393.129    -563.749    -566.047
  H      391.271    -561.676    -566.363
  H      389.413    -563.251    -566.150
  H      390.786    -564.087    -566.928
  H      391.188    -561.107    -556.679
  H      390.419    -562.470    -557.508
  P      394.883    -561.949    -566.778
  C      393.468    -560.982    -568.755
  O      394.290    -562.031    -568.265
  O      395.313    -563.475    -566.502
  O      396.039    -561.027    -566.580
  H      396.261    -563.584    -566.713
  H      393.166    -561.204    -569.757
  H      394.017    -560.064    -568.743
  H      392.602    -560.888    -568.134

 6  7  8  9  10  11  12  13  14  15  25  28  32  33  34  35 0
 6-311+G(2d,p)
 ****
 36  37  40 0
 6-311+G(2d,p)
 ****
 1  2  3  4  5  16  17  18  19  20  21  22  23  24 0
 3-21G
 ****
 26  27  29  30  31  38  39 41  42  43  44  45  46  47  48 0
 3-21G
 ****


