%nproc=1
%NoSave
%Mem=1900MB
#P OB98/GEN NMR

erre ene a

0 1
  C      -11.957      21.015     264.749
  O      -11.107      21.658     263.815
  P       -9.569      21.868     264.224
  C       -9.850      24.434     263.903
  O       -9.445      23.375     264.761
  C       -9.678      25.779     264.611
  O      -10.578      25.888     265.731
  C       -8.287      26.003     265.192
  O       -7.355      26.439     264.212
  C       -8.564      27.118     266.190
  O       -8.635      28.383     265.508
  C       -9.948      26.723     266.732
  N       -9.904      27.201     271.768
  C      -10.190      28.139     270.796
  N      -10.445      29.394     271.221
  N      -10.231      27.868     269.515
  C       -9.944      26.573     269.231
  C       -9.650      25.554     270.110
  C       -9.599      25.870     271.522
  O       -9.300      25.099     272.424
  N       -9.430      24.373     269.449
  C       -9.592      24.674     268.177
  N       -9.865      26.004     267.990
  O       -8.813      21.917     262.814
  O       -9.017      20.813     265.122
  H       -8.936      29.038     266.172
  H       -7.860      21.769     262.943
  H       -9.880      27.458     272.743
  H       -9.509      23.966     267.359
  H      -10.591      27.593     266.882
  H       -7.785      27.209     266.953
  H      -10.367      29.680     272.187
  H       -7.929      25.117     265.724
  H      -10.594      30.114     270.526
  H       -9.931      26.569     263.893
  H      -10.895      24.295     263.631
  H       -9.246      24.408     262.992
  P       -5.823      26.532     264.669
  C       -6.040      29.103     264.343
  O       -5.618      28.040     265.175
  O       -5.028      26.487     263.276
  O       -5.384      25.456     265.605
  H       -4.130      26.132     263.408
  H       -6.075      30.019     264.937
  H       -7.035      28.911     263.930
  H       -5.326      29.244     263.528
  H      -12.945      20.945     264.343
  H      -11.983      21.582     265.656
  H      -11.585      20.033     264.953

 3  4  5  6  7  8  9  10  11  12  23  26  30  31 0
 6-311+G(2d,p)
 ****
 33  35  36  37  38 0
 6-311+G(2d,p)
 ****
 1  2  13  14  15  16  17  18  19  20  21  22  24  25 0
 3-21G
 ****
 27  28  29  32  34  39  40  41  42  43  44  45  46  47  48  49 0
 3-21G
 ****


