%nproc=1
%NoSave
%Mem=1900MB
#P OB98/GEN NMR

erre ene a

0 1
  C     -102.683    -148.644    -333.273
  O     -102.857    -147.292    -332.904
  H     -102.196    -148.684    -334.250
  H     -103.658    -149.136    -333.347
  H     -102.057    -149.169    -332.542
  P     -103.370    -147.011    -331.410
  C     -105.649    -146.316    -332.445
  O     -104.974    -147.083    -331.458
  C     -106.733    -147.155    -333.115
  O     -106.138    -148.242    -333.862
  C     -107.718    -147.797    -332.142
  O     -108.743    -146.889    -331.754
  C     -108.278    -148.915    -333.008
  O     -109.232    -148.377    -333.945
  C     -107.019    -149.394    -333.749
  N     -106.534    -154.425    -333.328
  C     -107.386    -153.679    -334.116
  N     -108.241    -154.371    -334.904
  N     -107.410    -152.370    -334.134
  C     -106.508    -151.811    -333.290
  C     -105.607    -152.443    -332.462
  C     -105.590    -153.887    -332.457
  O     -104.838    -154.597    -331.792
  N     -104.849    -151.539    -331.763
  C     -105.302    -150.365    -332.154
  N     -106.314    -150.474    -333.076
  O     -103.076    -145.447    -331.205
  O     -102.719    -147.827    -330.345
  H     -109.841    -147.811    -333.435
  H     -102.811    -145.296    -330.277
  H     -106.566    -155.428    -333.343
  H     -104.933    -149.412    -331.804
  H     -107.240    -149.742    -334.764
  H     -108.795    -149.678    -332.427
  H     -108.312    -155.377    -334.897
  H     -107.205    -148.228    -331.275
  H     -108.851    -153.847    -335.514
  H     -107.262    -146.514    -333.835
  H     -104.927    -145.986    -333.200
  H     -106.093    -145.433    -331.968
  P     -108.875    -146.542    -330.191
  C     -111.412    -147.065    -330.367
  O     -110.189    -147.315    -329.685
  O     -109.329    -145.006    -330.198
  O     -107.634    -146.756    -329.391
  H     -109.094    -144.582    -329.351
  H     -112.193    -147.645    -329.923
  H     -111.308    -147.336    -331.397
  H     -111.655    -146.025    -330.295

 6  7  8  9  10  11  12  13  14  15  26  29  33  34 0
 6-311+G(2d,p)
 ****
 36  38  39  40  41 0
 6-311+G(2d,p)
 ****
 1  2  3  4  5  16  17  18  19  20  21  22  23  24  25 0
 3-21G
 ****
 27  28  30  31  32  35  37  42  43  44  45  46  47 0
 3-21G
 ****
 48  49 0
 3-21G
 ****


