%nproc=1
%NoSave
%Mem=1900MB
#P OB98/GEN NMR

erre ene a

0 1
  C      490.959     459.349     681.949
  O      491.445     459.401     683.273
  H      490.649     460.355     681.647
  H      490.089     458.688     681.902
  H      491.727     458.999     681.254
  P      492.232     458.130     683.862
  C      490.745     457.715     685.930
  O      491.142     457.243     684.646
  C      489.957     456.637     686.688
  O      488.635     456.528     686.081
  C      490.603     455.244     686.646
  O      490.258     454.575     687.866
  C      489.888     454.605     685.467
  O      490.026     453.197     685.480
  C      488.474     455.148     685.663
  N      487.656     455.039     684.457
  C      487.455     453.758     683.959
  O      487.941     452.746     684.467
  N      486.688     453.661     682.828
  C      486.181     454.714     682.122
  O      485.539     454.568     681.088
  C      486.471     456.050     682.667
  C      487.182     456.152     683.793
  O      493.462     458.428     684.641
  O      492.545     457.225     682.572
  H      489.475     452.808     684.761
  H      493.367     456.723     682.709
  H      486.533     452.734     682.458
  H      486.087     456.905     682.120
  H      487.403     457.128     684.219
  H      487.957     454.615     686.469
  H      490.303     454.964     684.523
  H      491.686     455.276     686.520
  H      489.804     456.977     687.723
  H      490.125     458.605     685.791
  H      491.635     457.997     686.511
  P      491.249     454.506     689.120
  C      491.148     451.941     689.414
  O      491.975     453.066     689.125
  O      490.631     454.865     690.422
  O      492.442     455.515     688.754
  H      492.827     455.866     689.572
  H      491.738     451.049     689.388
  H      490.369     451.874     688.684
  H      490.717     452.056     690.387

 6  7  8  9  10  11  12  13  14  15  16  26  31  32  33  34  35 0
 6-311+G(2d,p)
 ****
 36  37 0
 6-311+G(2d,p)
 ****
 1  2  3  4  5  17  18  19  20  21  22  23  24  25 0
 3-21G
 ****
 27  28  29  30  38  39  40  41  42  43  44  45 0
 3-21G
 ****


