%nproc=1
%NoSave
%Mem=1900MB
#P OB98/GEN NMR

erre ene a

0 1
  C     -136.763     575.351      45.612
  O     -136.141     576.611      45.743
  H     -137.811     575.509      45.338
  H     -136.736     574.811      46.565
  H     -136.280     574.760      44.831
  P     -134.601     576.688      46.187
  C     -133.992     578.735      44.763
  O     -134.204     578.245      46.080
  C     -133.888     580.262      44.754
  O     -135.170     580.844      45.103
  C     -132.847     580.812      45.741
  O     -132.033     581.793      45.093
  C     -133.691     581.483      46.816
  O     -132.991     582.507      47.521
  C     -134.894     581.946      45.986
  N     -136.038     582.287      46.822
  C     -136.393     583.642      46.859
  O     -135.752     584.465      46.204
  N     -137.417     584.037      47.675
  C     -138.011     583.163      48.431
  N     -139.000     583.626      49.240
  C     -137.650     581.728      48.446
  C     -136.668     581.364      47.625
  O     -133.695     575.756      45.453
  O     -134.613     576.434      47.769
  H     -132.838     583.254      46.902
  H     -133.723     576.118      48.049
  H     -138.174     581.046      49.095
  H     -136.334     580.333      47.562
  H     -134.634     582.814      45.371
  H     -134.010     580.728      47.547
  H     -132.204     580.039      46.165
  H     -133.672     580.589      43.727
  H     -139.211     584.617      49.200
  H     -134.825     578.405      44.127
  H     -139.519     583.047      49.885
  H     -133.060     578.307      44.379
  P     -130.449     581.643      45.287
  C     -129.499     581.262      42.902
  O     -129.731     582.183      43.956
  O     -130.214     580.063      45.240
  O     -129.951     582.232      46.568
  H     -129.972     579.737      46.126
  H     -129.017     581.764      42.089
  H     -130.432     580.858      42.569
  H     -128.872     580.469      43.253

 6  7  8  9  10  11  12  13  14  15  16  26  30  31  32  33  35 0
 6-311+G(2d,p)
 ****
 37  38 0
 6-311+G(2d,p)
 ****
 1  2  3  4  5  17  18  19  20  21  22  23  24  25 0
 3-21G
 ****
 27  28  29  34  36  39  40  41  42  43  44  45  46 0
 3-21G
 ****


