%nproc=1
%NoSave
%Mem=1900MB
#P OB98/GEN NMR

erre ene a

0 1
  C      -10.312     -41.088     -35.603
  O       -9.724     -39.865     -35.212
  H       -9.554     -41.875     -35.554
  H      -10.678     -41.018     -36.631
  H      -11.134     -41.348     -34.932
  P      -10.686     -38.582     -35.175
  C      -12.773     -37.926     -33.769
  O      -11.912     -38.967     -34.214
  C      -14.228     -38.327     -33.996
  O      -14.494     -38.390     -35.416
  C      -14.590     -39.704     -33.450
  O      -14.816     -39.677     -32.052
  C      -15.839     -40.024     -34.260
  O      -17.008     -39.426     -33.686
  C      -15.532     -39.375     -35.616
  N      -17.010     -41.985     -39.736
  C      -17.625     -41.034     -39.000
  N      -17.153     -40.371     -37.923
  C      -15.905     -40.775     -37.632
  C      -15.154     -41.737     -38.285
  C      -15.755     -42.359     -39.391
  N      -15.143     -43.352     -40.118
  N      -13.934     -41.905     -37.661
  C      -13.944     -41.054     -36.656
  N      -15.112     -40.347     -36.604
  O      -11.337     -38.582     -36.639
  O      -10.012     -37.289     -34.861
  H      -17.762     -39.693     -34.246
  H      -10.826     -37.992     -37.224
  H      -18.631     -40.773     -39.317
  H      -13.141     -40.921     -35.941
  H      -16.400     -38.848     -36.029
  H      -16.016     -41.099     -34.309
  H      -13.809     -40.430     -33.703
  H      -14.875     -37.554     -33.563
  H      -12.559     -37.013     -34.335
  H      -12.585     -37.741     -32.707
  H      -15.644     -43.770     -40.886
  H      -14.252     -43.711     -39.804
  P      -14.834     -41.064     -31.253
  C      -12.946     -42.620     -30.374
  O      -13.374     -41.717     -31.380
  O      -15.751     -42.002     -32.169
  O      -15.348     -40.972     -29.856
  H      -16.654     -42.056     -31.804
  H      -11.959     -42.965     -30.601
  H      -13.615     -43.454     -30.335
  H      -12.941     -42.122     -29.427

 6  7  8  9  10  11  12  13  14  15  25  28  32  33  34  35 0
 6-311+G(2d,p)
 ****
 36  37  40 0
 6-311+G(2d,p)
 ****
 1  2  3  4  5  16  17  18  19  20  21  22  23  24 0
 3-21G
 ****
 26  27  29  30  31  38  39 41  42  43  44  45  46  47  48 0
 3-21G
 ****


