%nproc=1
%NoSave
%Mem=1900MB
#P OB98/GEN NMR

erre ene a

0 1
  C     -222.071      14.435     261.647
  O     -223.401      14.245     262.101
  P     -223.720      14.123     263.668
  C     -224.325      11.631     263.476
  O     -223.456      12.590     264.069
  C     -225.479      11.295     264.419
  O     -226.506      10.601     263.672
  C     -225.070      10.395     265.581
  O     -225.812      10.775     266.743
  C     -225.524       9.009     265.158
  O     -225.771       8.172     266.302
  C     -226.760       9.339     264.317
  N     -229.381       5.087     263.128
  C     -229.378       5.859     264.237
  N     -228.637       6.960     264.495
  C     -227.876       7.274     263.435
  C     -227.775       6.585     262.236
  C     -228.574       5.435     262.099
  N     -228.584       4.656     260.963
  N     -226.864       7.194     261.397
  C     -226.438       8.241     262.069
  N     -227.029       8.339     263.302
  O     -225.048      14.653     264.085
  O     -222.520      14.895     264.384
  H     -224.901       7.967     266.702
  H     -222.849      15.390     265.159
  H     -230.058       5.549     265.026
  H     -225.703       8.949     261.717
  H     -227.657       9.450     264.941
  H     -224.740       8.534     264.556
  H     -223.996      10.434     265.793
  H     -225.916      12.232     264.788
  H     -223.751      10.723     263.274
  H     -229.277       3.926     260.909
  H     -228.119       5.012     260.138
  H     -224.704      12.021     262.525
  P     -224.937      11.222     268.022
  C     -224.250       8.797     268.676
  O     -223.849      10.060     268.194
  O     -225.793      11.537     269.203
  O     -224.130      12.470     267.424
  H     -224.044      12.408     266.448
  H     -223.368       8.157     268.761
  H     -224.950       8.332     267.977
  H     -224.715       8.892     269.661
  H     -222.064      14.492     260.579
  H     -221.465      13.612     261.965
  H     -221.681      15.344     262.055

 3  4  5  6  7  8  9  10  11  12  22  25  29  30  31  32 0
 6-311+G(2d,p)
 ****
 33  36  37 0
 6-311+G(2d,p)
 ****
 1  2  13  14  15  16  17  18  19  20  21  23  24  26 0
 3-21G
 ****
 27  28  34  35  38  39  40  41  42  43  44  45  46  47  48 0
 3-21G
 ****


