%nproc=1
%NoSave
%Mem=1900MB
#P OB98/GEN NMR

erre ene a

0 1
  C      -74.625     375.638     -52.684
  O      -74.065     375.561     -53.978
  H      -75.357     376.450     -52.668
  H      -73.839     375.859     -51.955
  H      -75.125     374.707     -52.413
  P      -73.207     374.269     -54.375
  C      -73.155     373.106     -56.677
  O      -72.981     374.319     -55.961
  C      -73.547     373.384     -58.134
  O      -74.860     374.006     -58.156
  C      -72.580     374.367     -58.803
  O      -72.501     374.175     -60.212
  C      -73.224     375.719     -58.520
  O      -72.819     376.731     -59.439
  C      -74.708     375.364     -58.600
  N      -77.192     379.812     -58.349
  C      -76.271     379.377     -59.282
  N      -75.978     380.241     -60.284
  N      -75.678     378.215     -59.228
  C      -76.013     377.484     -58.137
  C      -76.890     377.818     -57.131
  C      -77.570     379.095     -57.219
  O      -78.371     379.538     -56.407
  N      -76.965     376.824     -56.184
  C      -76.133     375.899     -56.609
  N      -75.548     376.240     -57.805
  O      -74.252     373.061     -54.213
  O      -71.972     374.039     -53.560
  H      -73.083     377.591     -59.065
  H      -73.777     372.220     -54.084
  H      -77.640     380.707     -58.452
  H      -75.930     374.967     -56.107
  H      -75.061     375.418     -59.642
  H      -72.916     376.043     -57.521
  H      -76.261     381.209     -60.250
  H      -71.575     374.321     -58.380
  H      -75.100     380.073     -60.787
  H      -73.633     372.441     -58.689
  H      -73.939     372.540     -56.169
  H      -72.245     372.505     -56.635
  P      -71.221     373.420     -60.814
  C      -71.296     371.951     -63.013
  O      -71.405     373.209     -62.385
  O      -71.330     371.947     -60.211
  O      -69.909     374.071     -60.481
  H      -70.577     371.765     -59.617
  H      -71.458     372.062     -64.065
  H      -72.029     371.285     -62.607
  H      -70.318     371.551     -62.843

 6  7  8  9  10  11  12  13  14  15  26  29  33  34 0
 6-311+G(2d,p)
 ****
 36  38  39  40  41 0
 6-311+G(2d,p)
 ****
 1  2  3  4  5  16  17  18  19  20  21  22  23  24  25 0
 3-21G
 ****
 27  28  30  31  32  35  37  42  43  44  45  46  47 0
 3-21G
 ****
 48  49 0
 3-21G
 ****


