%nproc=1
%NoSave
%Mem=1900MB
#P OB98/GEN NMR

erre ene a

0 1
  C     -184.433     -54.988     -62.852
  O     -183.084     -54.986     -63.300
  P     -182.397     -53.561     -63.588
  C     -182.925     -51.572     -65.173
  O     -183.294     -52.872     -64.726
  C     -183.670     -51.215     -66.455
  O     -183.211     -52.040     -67.545
  C     -185.177     -51.422     -66.390
  O     -185.842     -50.338     -65.764
  C     -185.524     -51.476     -67.869
  O     -185.574     -50.140     -68.408
  C     -184.328     -52.236     -68.453
  N     -182.888     -56.495     -70.891
  C     -182.491     -55.210     -71.013
  N     -182.930     -54.130     -70.334
  C     -183.909     -54.472     -69.477
  C     -184.444     -55.734     -69.273
  C     -183.884     -56.784     -70.018
  N     -184.270     -58.098     -69.872
  N     -185.434     -55.691     -68.316
  C     -185.490     -54.431     -67.941
  N     -184.582     -53.656     -68.608
  O     -181.056     -53.959     -64.365
  O     -182.123     -52.738     -62.377
  H     -185.982     -50.205     -69.292
  H     -180.393     -53.248     -64.273
  H     -181.710     -55.028     -71.746
  H     -186.162     -54.037     -67.191
  H     -184.022     -51.847     -69.430
  H     -186.498     -51.934     -68.062
  H     -185.426     -52.382     -65.921
  H     -183.437     -50.170     -66.702
  H     -181.849     -51.553     -65.368
  H     -183.699     -58.809     -70.302
  H     -184.863     -58.334     -69.084
  H     -183.152     -50.845     -64.385
  P     -187.188     -50.683     -64.958
  C     -189.520     -51.577     -65.681
  O     -188.275     -51.034     -66.081
  O     -187.652     -49.256     -64.401
  O     -187.009     -51.688     -63.871
  H     -188.196     -49.364     -63.598
  H     -190.231     -51.462     -66.503
  H     -189.915     -51.054     -64.804
  H     -189.406     -52.640     -65.456
  H     -184.757     -55.997     -62.702
  H     -185.054     -54.519     -63.587
  H     -184.503     -54.450     -61.930

 3  4  5  6  7  8  9  10  11  12  22  25  29  30  31  32 0
 6-311+G(2d,p)
 ****
 33  36  37 0
 6-311+G(2d,p)
 ****
 1  2  13  14  15  16  17  18  19  20  21  23  24  26 0
 3-21G
 ****
 27  28  34  35  38  39  40  41  42  43  44  45  46  47  48 0
 3-21G
 ****


