%nproc=1
%NoSave
%Mem=1900MB
#P OB98/GEN NMR

erre ene a

0 1
  C     -484.693     496.361    -216.476
  O     -484.433     495.535    -217.608
  P     -485.352     495.705    -218.908
  C     -487.256     493.920    -218.459
  O     -486.849     495.267    -218.583
  C     -488.785     493.840    -218.492
  O     -489.284     494.285    -219.773
  C     -489.323     492.438    -218.263
  O     -489.482     492.134    -216.894
  C     -490.640     492.476    -219.019
  O     -491.642     493.162    -218.247
  C     -490.257     493.315    -220.267
  N     -489.664     492.611    -221.430
  C     -490.396     491.632    -222.092
  O     -491.532     491.300    -221.787
  N     -489.785     491.042    -223.165
  C     -488.600     491.424    -223.730
  O     -488.131     490.894    -224.739
  C     -487.939     492.566    -223.085
  C     -488.477     493.083    -221.981
  O     -484.827     494.557    -219.899
  O     -485.276     497.066    -219.542
  H     -492.502     493.010    -218.681
  H     -484.421     494.954    -220.697
  H     -490.268     490.282    -223.609
  H     -487.024     492.935    -223.534
  H     -487.989     493.923    -221.484
  H     -491.113     493.877    -220.638
  H     -491.033     491.467    -219.200
  H     -488.677     491.701    -218.757
  H     -489.181     494.523    -217.718
  H     -486.876     493.488    -217.532
  H     -486.827     493.335    -219.287
  P     -488.371     491.242    -216.144
  C     -489.847     489.199    -215.715
  O     -488.760     489.718    -216.458
  O     -488.123     491.567    -214.707
  O     -487.059     491.446    -217.052
  H     -486.479     492.152    -216.663
  H     -490.115     488.208    -216.115
  H     -490.717     489.852    -215.791
  H     -489.556     489.070    -214.658
  H     -483.998     496.127    -215.697
  H     -485.690     496.187    -216.129
  H     -484.586     497.389    -216.752

 3  4  5  6  7  8  9  10  11  12  13  23  28  29  30  31  32 0
 6-311+G(2d,p)
 ****
 33  34 0
 6-311+G(2d,p)
 ****
 1  2  14  15  16  17  18  19  20  21  22  24  25  26  27 0
 3-21G
 ****
 35  36  37  38  39  40  41  42  43  44  45 0
 3-21G
 ****


