%nproc=1
%NoSave
%Mem=1900MB
#P OB98/GEN NMR

erre ene a

0 1
  C       69.944    -295.408     -29.757
  O       68.945    -296.402     -29.622
  H       70.715    -295.775     -30.440
  H       70.413    -295.193     -28.792
  H       69.513    -294.492     -30.170
  P       67.780    -296.164     -28.547
  C       66.071    -295.597     -30.406
  O       66.410    -296.459     -29.325
  C       65.242    -296.353     -31.439
  O       66.055    -297.340     -32.104
  C       64.075    -297.118     -30.828
  O       63.018    -296.243     -30.489
  C       63.775    -298.111     -31.933
  O       63.003    -297.509     -32.980
  C       65.198    -298.462     -32.428
  N       65.709    -299.698     -31.846
  C       65.216    -300.886     -32.397
  O       64.405    -300.855     -33.321
  N       65.643    -302.078     -31.866
  C       66.494    -302.087     -30.891
  N       66.878    -303.301     -30.411
  C       67.051    -300.858     -30.290
  C       66.615    -299.711     -30.809
  O       67.801    -294.863     -27.804
  O       67.916    -297.419     -27.562
  H       62.937    -298.185     -33.685
  H       68.526    -297.214     -26.831
  H       67.762    -300.913     -29.482
  H       66.974    -298.761     -30.427
  H       65.212    -298.565     -33.520
  H       63.217    -298.967     -31.560
  H       64.411    -297.680     -29.949
  H       64.893    -295.638     -32.195
  H       66.463    -304.119     -30.846
  H       67.010    -295.252     -30.852
  H       67.597    -303.434     -29.716
  H       65.518    -294.723     -30.043
  P       61.958    -296.644     -29.355
  C       63.073    -294.900     -27.815
  O       61.854    -295.359     -28.395
  O       62.221    -297.939     -28.666
  O       60.561    -296.613     -30.142
  H       60.464    -297.398     -30.737
  H       62.876    -294.046     -27.201
  H       63.758    -294.631     -28.591
  H       63.499    -295.679     -27.217

 6  7  8  9  10  11  12  13  14  15  16  26  30  31  32  33  35 0
 6-311+G(2d,p)
 ****
 37  38 0
 6-311+G(2d,p)
 ****
 1  2  3  4  5  17  18  19  20  21  22  23  24  25 0
 3-21G
 ****
 27  28  29  34  36  39  40  41  42  43  44  45  46 0
 3-21G
 ****


