%nproc=1
%NoSave
%Mem=1900MB
#P OB98/GEN NMR

erre ene a

0 1
  C     -235.306      61.365     177.353
  O     -233.949      61.669     177.603
  H     -235.803      61.062     178.279
  H     -235.804      62.259     176.965
  H     -235.383      60.565     176.611
  P     -233.044      60.492     178.215
  C     -232.706      61.836     180.418
  O     -233.183      60.643     179.809
  C     -231.948      61.483     181.695
  O     -231.123      62.597     182.106
  C     -232.851      61.174     182.884
  O     -233.335      59.839     182.869
  C     -231.886      61.395     184.036
  O     -230.998      60.271     184.150
  C     -231.118      62.638     183.561
  N     -232.482      65.438     187.627
  C     -231.855      64.246     187.522
  N     -231.511      63.579     186.402
  C     -231.866      64.267     185.306
  C     -232.504      65.497     185.259
  C     -232.822      66.093     186.494
  N     -233.491      67.291     186.606
  N     -232.724      65.879     183.950
  C     -232.211      64.904     183.223
  N     -231.710      63.893     184.001
  O     -231.546      60.978     177.937
  O     -233.321      59.120     177.698
  H     -230.629      60.106     183.259
  H     -230.918      60.240     178.065
  H     -231.600      63.764     188.463
  H     -232.188      64.879     182.141
  H     -230.073      62.641     183.891
  H     -232.397      61.502     184.997
  H     -233.674      61.893     182.963
  H     -231.283      60.638     181.473
  H     -233.563      62.475     180.665
  H     -233.804      67.563     187.526
  H     -233.877      67.713     185.774
  H     -232.051      62.366     179.723
  P     -234.899      59.616     183.161
  C     -234.420      58.660     185.531
  O     -235.073      59.661     184.756
  O     -235.108      58.066     182.813
  O     -235.813      60.503     182.380
  H     -236.007      57.909     182.464
  H     -234.628      58.820     186.568
  H     -233.364      58.714     185.366
  H     -234.778      57.694     185.241

 6  7  8  9  10  11  12  13  14  15  25  28  32  33  34  35 0
 6-311+G(2d,p)
 ****
 36  39  40 0
 6-311+G(2d,p)
 ****
 1  2  3  4  5  16  17  18  19  20  21  22  23  24 0
 3-21G
 ****
 26  27  29  30  31  37  38  41  42  43  44  45  46  47 0
 3-21G
 ****
 48 0
 3-21G
 ****


