%nproc=1
%NoSave
%Mem=1900MB
#P OB98/GEN NMR

erre ene a

0 1
  C      154.753     -77.190      -1.497
  O      154.580     -78.013      -2.633
  H      155.535     -76.457      -1.712
  H      155.062     -77.786      -0.633
  H      153.827     -76.657      -1.269
  P      153.540     -79.227      -2.546
  C      155.169     -80.450      -4.139
  O      153.813     -80.150      -3.827
  C      155.326     -80.735      -5.631
  O      156.703     -81.023      -5.944
  C      154.528     -81.936      -6.124
  O      153.156     -81.615      -6.228
  C      155.235     -82.221      -7.438
  O      154.810     -81.307      -8.460
  C      156.711     -81.957      -7.051
  N      157.446     -83.169      -6.700
  C      158.795     -83.200      -7.073
  O      159.294     -82.249      -7.674
  N      159.532     -84.318      -6.769
  C      158.989     -85.295      -6.114
  N      159.774     -86.371      -5.840
  C      157.581     -85.287      -5.673
  C      156.873     -84.211      -6.006
  O      152.103     -78.854      -2.348
  O      154.089     -80.118      -1.334
  H      155.347     -81.515      -9.251
  H      153.646     -79.872      -0.501
  H      157.172     -86.121      -5.120
  H      155.829     -84.125      -5.719
  H      157.242     -81.466      -7.876
  H      155.036     -83.227      -7.807
  H      154.682     -82.792      -5.457
  H      155.047     -79.825      -6.180
  H      160.741     -86.323      -6.145
  H      155.446     -81.335      -3.556
  H      159.511     -87.108      -5.203
  H      155.826     -79.624      -3.843
  P      152.020     -82.572      -5.622
  C      151.239     -82.839      -8.057
  O      150.845     -82.598      -6.715
  O      151.584     -82.239      -4.236
  O      152.650     -84.036      -5.759
  H      153.324     -84.190      -5.049
  H      150.375     -82.833      -8.689
  H      151.722     -83.792      -8.121
  H      151.917     -82.074      -8.373

 6  7  8  9  10  11  12  13  14  15  16  26  30  31  32  33  35 0
 6-311+G(2d,p)
 ****
 37  38 0
 6-311+G(2d,p)
 ****
 1  2  3  4  5  17  18  19  20  21  22  23  24  25 0
 3-21G
 ****
 27  28  29  34  36  39  40  41  42  43  44  45  46 0
 3-21G
 ****


