%nproc=1
%NoSave
%Mem=1900MB
#P OB98/GEN NMR

erre ene a

0 1
  C     -144.958    -927.347     533.954
  O     -144.684    -927.029     535.309
  H     -145.750    -926.677     533.594
  H     -145.295    -928.380     533.857
  H     -144.065    -927.188     533.345
  P     -143.755    -928.035     536.144
  C     -143.951    -930.500     536.884
  O     -144.549    -929.439     536.153
  C     -144.675    -931.823     536.651
  O     -146.064    -931.725     537.025
  C     -144.706    -932.258     535.194
  O     -143.453    -932.609     534.652
  C     -145.827    -933.297     535.197
  O     -145.380    -934.580     535.638
  C     -146.798    -932.689     536.236
  N     -147.976    -932.089     535.618
  C     -149.201    -932.705     535.896
  O     -149.307    -933.707     536.619
  N     -150.296    -932.146     535.325
  C     -150.296    -931.088     534.461
  O     -151.324    -930.638     533.956
  C     -148.973    -930.502     534.162
  C     -147.891    -931.016     534.753
  O     -143.352    -927.563     537.514
  O     -142.522    -928.330     535.172
  H     -146.144    -935.179     535.585
  H     -141.766    -928.736     535.662
  H     -151.198    -932.564     535.521
  H     -148.939    -929.661     533.478
  H     -146.905    -930.607     534.546
  H     -147.144    -933.463     536.940
  H     -146.274    -933.432     534.207
  H     -145.074    -931.421     534.584
  H     -144.213    -932.589     537.286
  H     -144.006    -930.248     537.953
  H     -142.896    -930.591     536.600
  P     -143.015    -932.319     533.147
  C     -143.065    -933.646     530.892
  O     -143.569    -933.508     532.213
  O     -141.614    -931.856     532.927
  O     -144.004    -931.090     532.758
  H     -143.509    -930.512     532.137
  H     -143.537    -934.480     530.415
  H     -142.008    -933.808     530.929
  H     -143.270    -932.755     530.337

 6  7  8  9  10  11  12  13  14  15  16  26  31  32  33  34  35 0
 6-311+G(2d,p)
 ****
 36  37 0
 6-311+G(2d,p)
 ****
 1  2  3  4  5  17  18  19  20  21  22  23  24  25 0
 3-21G
 ****
 27  28  29  30  38  39  40  41  42  43  44  45 0
 3-21G
 ****


