%nproc=1
%NoSave
%Mem=1900MB
#P OB98/GEN NMR

erre ene a

0 1
  C       13.639     206.910    -197.953
  O       12.302     206.912    -197.501
  H       13.664     207.318    -198.968
  H       14.029     205.890    -197.979
  H       14.269     207.532    -197.311
  P       12.003     206.518    -195.976
  C        9.989     205.077    -196.692
  O       11.231     205.113    -196.001
  C        9.944     203.864    -197.617
  O       11.106     203.856    -198.477
  C        9.972     202.529    -196.883
  O        8.722     202.232    -196.294
  C       10.395     201.596    -198.005
  O        9.277     201.226    -198.821
  C       11.384     202.476    -198.802
  N       12.777     202.137    -198.510
  C       13.375     201.210    -199.358
  O       12.800     200.695    -200.316
  N       14.654     200.844    -199.035
  C       15.317     201.199    -197.893
  O       16.353     200.658    -197.522
  C       14.664     202.226    -197.068
  C       13.436     202.633    -197.402
  O       11.362     207.581    -195.148
  O       13.446     206.124    -195.401
  H       13.792     206.862    -194.867
  H        8.688     200.697    -198.244
  H       15.079     200.141    -199.622
  H       15.190     202.588    -196.194
  H       12.919     203.364    -196.790
  H       11.216     202.363    -199.880
  H       10.843     200.679    -197.617
  H       10.758     202.544    -196.118
  H        9.051     203.943    -198.249
  H        9.890     205.993    -197.284
  H        9.175     205.039    -195.959
  P        8.586     202.119    -194.701
  C        8.754     199.575    -195.031
  O        9.161     200.694    -194.248
  O        7.241     202.455    -194.152
  O        9.693     203.137    -194.146
  H        9.278     203.722    -193.482
  H        9.197     198.684    -194.637
  H        9.071     199.714    -196.043
  H        7.688     199.487    -195.000

 6  7  8  9  10  11  12  13  14  15  16  27  31  32  33  34  35 0
 6-311+G(2d,p)
 ****
 36  37 0
 6-311+G(2d,p)
 ****
 1  2  3  4  5  17  18  19  20  21  22  23  24  25 0
 3-21G
 ****
 26  28  29  30  38  39  40  41  42  43  44  45 0
 3-21G
 ****


