%nproc=1
%NoSave
%Mem=1900MB
#P OB98/GEN NMR

erre ene a

0 1
  C     -242.687      17.666     400.861
  O     -242.194      18.981     400.989
  H     -243.248      17.590     399.926
  H     -243.361      17.437     401.690
  H     -241.865      16.945     400.840
  P     -241.203      19.283     402.217
  C     -243.286      19.848     403.659
  O     -242.071      19.121     403.557
  C     -244.358      19.004     404.352
  O     -243.738      18.256     405.432
  C     -245.502      19.826     404.945
  O     -246.726      19.114     404.753
  C     -245.175      19.883     406.427
  O     -246.330      20.088     407.239
  C     -244.472      18.537     406.639
  N     -243.600      18.565     407.809
  C     -244.221      18.482     409.059
  O     -245.448      18.395     409.137
  N     -243.447      18.554     410.188
  C     -242.174      18.780     410.086
  N     -241.467      18.872     411.245
  C     -241.488      18.945     408.791
  C     -242.250      18.820     407.706
  O     -240.969      20.862     402.123
  O     -239.924      18.515     402.210
  H     -246.806      20.877     406.907
  H     -240.076      21.105     402.435
  H     -240.430      19.159     408.753
  H     -241.836      18.932     406.710
  H     -245.211      17.732     406.772
  H     -244.479      20.709     406.618
  H     -245.591      20.824     404.506
  H     -244.738      18.267     403.631
  H     -241.980      18.772     412.113
  H     -243.633      20.106     402.655
  H     -240.485      19.091     411.285
  H     -243.110      20.774     404.219
  P     -247.712      19.664     403.614
  C     -249.713      20.411     405.091
  O     -248.631      20.807     404.257
  O     -248.723      18.446     403.383
  O     -247.010      20.046     402.354
  H     -248.544      18.022     402.517
  H     -250.229      21.280     405.442
  H     -249.336      19.858     405.926
  H     -250.388      19.797     404.532

 6  7  8  9  10  11  12  13  14  15  16  26  30  31  32  33  35 0
 6-311+G(2d,p)
 ****
 37  38 0
 6-311+G(2d,p)
 ****
 1  2  3  4  5  17  18  19  20  21  22  23  24  25 0
 3-21G
 ****
 27  28  29  34  36  39  40  41  42  43  44  45  46 0
 3-21G
 ****


