%nproc=1
%NoSave
%Mem=1900MB
#P OB98/GEN NMR

erre ene a

0 1
  C      -46.843     -22.528      33.443
  O      -47.947     -22.768      34.292
  H      -47.119     -22.717      32.402
  H      -46.542     -21.481      33.542
  H      -46.002     -23.167      33.727
  P      -48.569     -24.247      34.269
  C      -49.683     -23.680      31.986
  O      -48.844     -24.562      32.718
  C      -49.769     -24.151      30.538
  O      -48.460     -24.109      29.925
  C      -50.251     -25.589      30.388
  O      -51.663     -25.699      30.448
  C      -49.732     -25.917      28.998
  O      -50.577     -25.308      28.006
  C      -48.353     -25.238      29.015
  N      -43.881     -27.386      27.750
  C      -44.677     -26.510      27.099
  N      -45.841     -25.970      27.513
  C      -46.161     -26.411      28.740
  C      -45.445     -27.298      29.529
  C      -44.251     -27.801      28.984
  N      -43.453     -28.719      29.631
  N      -46.103     -27.528      30.721
  C      -47.185     -26.778      30.658
  N      -47.281     -26.110      29.467
  O      -50.043     -24.050      34.862
  O      -47.785     -25.296      34.984
  H      -50.727     -24.385      28.287
  H      -50.431     -24.914      35.102
  H      -44.335     -26.206      26.114
  H      -47.930     -26.694      31.438
  H      -48.063     -24.848      28.032
  H      -49.720     -26.991      28.794
  H      -49.769     -26.254      31.115
  H      -50.417     -23.458      29.988
  H      -49.257     -22.671      32.021
  H      -42.701     -29.130      29.100
  H      -43.793     -29.144      30.481
  H      -50.680     -23.666      32.438
  P      -52.278     -27.134      30.827
  C      -52.054     -27.891      28.352
  O      -51.749     -28.163      29.715
  O      -53.827     -26.965      30.467
  O      -52.068     -27.545      32.248
  H      -54.385     -27.500      31.064
  H      -51.638     -28.659      27.733
  H      -51.637     -26.945      28.075
  H      -53.116     -27.865      28.223

 6  7  8  9  10  11  12  13  14  15  25  28  32  33  34  35 0
 6-311+G(2d,p)
 ****
 36  39  40 0
 6-311+G(2d,p)
 ****
 1  2  3  4  5  16  17  18  19  20  21  22  23  24 0
 3-21G
 ****
 26  27  29  30  31  37  38  41  42  43  44  45  46  47 0
 3-21G
 ****
 48 0
 3-21G
 ****


