%nproc=1
%NoSave
%Mem=1900MB
#P OB98/GEN NMR

erre ene a

0 1
  C      -43.783     108.858     -25.176
  O      -42.652     108.922     -24.336
  H      -43.639     108.045     -25.892
  H      -43.889     109.797     -25.727
  H      -44.691     108.662     -24.603
  P      -42.731     109.802     -23.001
  C      -41.032     110.274     -21.117
  O      -41.226     110.045     -22.504
  C      -39.542     110.450     -20.797
  O      -38.917     109.142     -20.734
  C      -38.821     111.235     -21.898
  O      -37.691     111.945     -21.398
  C      -38.341     110.137     -22.833
  O      -37.233     110.534     -23.641
  C      -38.015     109.019     -21.846
  N      -35.850     105.463     -24.786
  C      -35.490     106.783     -24.604
  N      -34.407     107.211     -25.296
  N      -36.143     107.614     -23.835
  C      -37.243     107.070     -23.263
  C      -37.716     105.783     -23.385
  C      -36.964     104.863     -24.212
  O      -37.252     103.690     -24.425
  N      -38.869     105.602     -22.662
  C      -39.096     106.775     -22.109
  N      -38.124     107.693     -22.424
  O      -43.293     108.775     -21.907
  O      -43.581     111.033     -23.087
  H      -36.858     109.727     -24.038
  H      -43.706     109.259     -21.169
  H      -35.296     104.858     -25.366
  H      -39.934     107.008     -21.465
  H      -36.994     109.128     -21.462
  H      -39.160     109.882     -23.511
  H      -34.003     106.663     -26.040
  H      -39.476     111.931     -22.416
  H      -34.320     108.223     -25.420
  H      -39.421     110.907     -19.809
  H      -41.438     109.407     -20.590
  H      -41.601     111.146     -20.793
  P      -37.910     113.421     -20.816
  C      -36.553     115.040     -19.223
  O      -36.589     113.909     -20.065
  O      -38.966     113.211     -19.636
  O      -38.389     114.417     -21.826
  H      -39.802     113.668     -19.842
  H      -35.563     115.166     -18.837
  H      -37.238     114.903     -18.412
  H      -36.831     115.909     -19.781

 6  7  8  9  10  11  12  13  14  15  26  29  33  34 0
 6-311+G(2d,p)
 ****
 36  38  39  40  41 0
 6-311+G(2d,p)
 ****
 1  2  3  4  5  16  17  18  19  20  21  22  23  24  25 0
 3-21G
 ****
 27  28  30  31  32  35  37  42  43  44  45  46  47 0
 3-21G
 ****
 48  49 0
 3-21G
 ****


