%nproc=1
%NoSave
%Mem=1900MB
#P OB98/GEN NMR

erre ene a

0 1
  C      363.964     -42.568      35.835
  O      364.789     -43.338      36.717
  P      366.177     -42.696      37.208
  C      366.312     -43.684      39.610
  O      366.837     -43.691      38.291
  C      366.707     -44.975      40.346
  O      366.129     -46.143      39.717
  C      368.210     -45.229      40.359
  O      368.851     -44.502      41.402
  C      368.260     -46.715      40.659
  O      368.061     -46.938      42.073
  C      367.070     -47.243      39.856
  N      366.336     -50.989      36.528
  C      365.787     -50.790      37.787
  N      364.903     -51.724      38.216
  N      366.065     -49.762      38.560
  C      366.956     -48.893      37.982
  C      367.583     -48.993      36.744
  C      367.269     -50.140      35.926
  O      367.727     -50.378      34.813
  N      368.403     -47.929      36.536
  C      368.296     -47.198      37.624
  N      367.433     -47.747      38.549
  O      365.689     -41.461      38.113
  O      367.081     -42.247      36.109
  H      368.833     -46.548      42.519
  H      366.368     -40.758      38.107
  H      366.087     -51.800      35.989
  H      368.803     -46.253      37.791
  H      366.547     -48.069      40.381
  H      369.231     -47.172      40.395
  H      364.600     -52.509      37.651
  H      368.669     -45.017      39.375
  H      364.457     -51.572      39.112
  H      366.346     -44.913      41.389
  H      365.217     -43.597      39.598
  H      366.685     -42.798      40.137
  P      369.381     -43.011      41.084
  C      368.810     -42.339      43.533
  O      369.776     -42.366      42.483
  O      368.020     -42.247      40.674
  O      370.413     -42.930      40.001
  H      368.232     -41.558      39.997
  H      369.308     -42.021      44.450
  H      368.393     -43.344      43.697
  H      368.005     -41.648      43.290
  H      363.081     -43.123      35.598
  H      364.504     -42.356      34.936
  H      363.691     -41.650      36.312

 3  4  5  6  7  8  9  10  11  12  23  26  30  31 0
 6-311+G(2d,p)
 ****
 33  35  36  37  38 0
 6-311+G(2d,p)
 ****
 1  2  13  14  15  16  17  18  19  20  21  22  24  25 0
 3-21G
 ****
 27  28  29  32  34  39  40  41  42  43  44  45  46  47  48  49 0
 3-21G
 ****


