%nproc=1
%NoSave
%Mem=1900MB
#P OB98/GEN NMR

erre ene a

0 1
  C      125.697     338.583     275.023
  O      124.917     339.209     274.023
  H      125.033     338.181     275.794
  H      126.373     339.313     275.482
  H      126.272     337.759     274.594
  P      125.706     339.842     272.782
  C      126.944     341.754     274.037
  O      125.912     341.397     273.123
  C      126.936     343.268     274.251
  O      127.150     343.943     272.990
  C      125.626     343.809     274.792
  O      125.476     343.594     276.184
  C      125.729     345.277     274.412
  O      126.491     346.020     275.375
  C      126.477     345.223     273.075
  N      123.201     348.429     270.802
  C      124.016     348.577     271.885
  N      124.861     347.676     272.414
  C      124.849     346.530     271.698
  C      124.085     346.241     270.584
  C      123.225     347.251     270.139
  N      122.377     347.096     269.055
  N      124.318     344.937     270.161
  C      125.223     344.473     271.003
  N      125.573     345.389     271.941
  O      124.607     339.849     271.616
  O      126.944     339.108     272.374
  H      125.967     346.031     276.199
  H      124.755     339.090     271.023
  H      123.966     349.542     272.377
  H      125.637     343.470     270.965
  H      127.247     346.006     272.994
  H      124.740     345.734     274.352
  H      124.778     343.364     274.244
  H      127.772     343.530     274.929
  H      127.914     341.451     273.631
  H      126.782     341.225     274.982
  H      121.745     347.841     268.826
  H      122.302     346.186     268.617
  P      124.504     342.414     276.671
  C      122.105     343.395     277.036
  O      123.375     343.080     277.587
  O      125.391     341.567     277.691
  O      123.955     341.566     275.563
  H      125.170     340.615     277.621
  H      121.486     343.830     277.793
  H      121.644     342.502     276.668
  H      122.228     344.090     276.232

 6  7  8  9  10  11  12  13  14  15  25  28  32  33  34  35 0
 6-311+G(2d,p)
 ****
 36  37  40 0
 6-311+G(2d,p)
 ****
 1  2  3  4  5  16  17  18  19  20  21  22  23  24 0
 3-21G
 ****
 26  27  29  30  31  38  39 41  42  43  44  45  46  47  48 0
 3-21G
 ****


