%nproc=1
%NoSave
%Mem=1900MB
#P OB98/GEN NMR

erre ene a

0 1
  C      158.358     -85.608     100.775
  O      158.529     -86.177     102.059
  H      157.295     -85.626     100.522
  H      158.909     -86.191     100.033
  H      158.708     -84.571     100.769
  P      159.994     -86.092     102.701
  C      162.318     -87.158     102.112
  O      160.906     -87.171     101.937
  C      162.830     -88.580     102.349
  O      162.458     -89.455     101.262
  C      164.345     -88.691     102.398
  O      164.893     -88.135     103.574
  C      164.512     -90.198     102.288
  O      164.267     -90.839     103.547
  C      163.400     -90.554     101.268
  N      163.933     -90.818      99.938
  C      164.193     -92.163      99.640
  O      163.962     -93.038     100.472
  N      164.734     -92.471      98.415
  C      164.974     -91.533      97.556
  N      165.517     -91.902      96.369
  C      164.689     -90.106      97.821
  C      164.186     -89.824      99.017
  O      159.785     -86.761     104.139
  O      160.599     -84.728     102.736
  H      164.843     -90.397     104.201
  H      159.375     -87.645     104.103
  H      164.897     -89.355      97.069
  H      163.949     -88.802      99.296
  H      162.851     -91.449     101.596
  H      165.518     -90.478     101.983
  H      164.787     -88.238     101.501
  H      162.366     -88.958     103.270
  H      165.716     -92.887      96.229
  H      162.608     -86.503     102.940
  H      165.776     -91.252      95.637
  H      162.764     -86.746     101.199
  P      166.473     -87.887     103.692
  C      168.472     -89.156     104.707
  O      167.084     -89.204     104.377
  O      166.866     -86.609     104.356
  O      166.985     -88.023     102.181
  H      166.810     -88.885     101.767
  H      168.764     -90.083     105.154
  H      168.647     -88.356     105.396
  H      169.045     -88.993     103.818

 6  7  8  9  10  11  12  13  14  15  16  26  30  31  32  33  35 0
 6-311+G(2d,p)
 ****
 37  38 0
 6-311+G(2d,p)
 ****
 1  2  3  4  5  17  18  19  20  21  22  23  24  25 0
 3-21G
 ****
 27  28  29  34  36  39  40  41  42  43  44  45  46 0
 3-21G
 ****


