%nproc=1
%NoSave
%Mem=1900MB
#P OB98/GEN NMR

erre ene a

0 1
  C      142.837      28.326    -376.678
  O      142.981      27.835    -378.005
  P      143.962      26.589    -378.248
  C      145.974      27.943    -379.161
  O      145.463      27.137    -378.108
  C      147.432      27.598    -379.464
  O      148.245      27.952    -378.317
  C      147.687      26.117    -379.763
  O      148.763      26.052    -380.714
  C      148.177      25.577    -378.432
  O      148.911      24.364    -378.573
  C      148.987      26.772    -377.936
  N      151.148      29.145    -373.945
  C      151.116      29.447    -375.263
  N      150.520      28.764    -376.266
  C      149.908      27.666    -375.788
  C      149.884      27.211    -374.485
  C      150.539      28.007    -373.525
  N      150.562      27.711    -372.185
  N      149.176      26.029    -374.396
  C      148.782      25.769    -375.627
  N      149.182      26.745    -376.498
  O      143.802      26.320    -379.818
  O      143.644      25.364    -377.455
  H      148.280      23.639    -378.732
  H      143.339      25.471    -379.967
  H      151.636      30.360    -375.548
  H      148.218      24.902    -375.934
  H      149.979      26.826    -378.407
  H      147.319      25.378    -377.772
  H      146.810      25.576    -380.141
  H      147.765      28.221    -380.304
  H      145.918      28.992    -378.857
  H      150.935      28.394    -371.551
  H      149.954      26.971    -371.839
  H      145.358      27.807    -380.059
  P      148.585      25.032    -381.936
  C      150.653      23.677    -381.140
  O      149.286      23.657    -381.495
  O      149.575      25.618    -383.054
  O      147.181      24.914    -382.443
  H      149.257      25.374    -383.945
  H      150.832      22.933    -380.361
  H      150.965      24.661    -380.773
  H      151.254      23.420    -382.027
  H      142.156      29.151    -376.675
  H      143.789      28.648    -376.312
  H      142.457      27.548    -376.049

 3  4  5  6  7  8  9  10  11  12  22  25  29  30  31  32 0
 6-311+G(2d,p)
 ****
 33  36  37 0
 6-311+G(2d,p)
 ****
 1  2  13  14  15  16  17  18  19  20  21  23  24  26 0
 3-21G
 ****
 27  28  34  35  38  39  40  41  42  43  44  45  46  47  48 0
 3-21G
 ****


