%nproc=1
%NoSave
%Mem=1900MB
#P OB98/GEN NMR

erre ene a

0 1
  C      153.869     -43.713     -14.646
  O      152.797     -44.108     -15.475
  H      154.798     -44.130     -15.047
  H      153.721     -44.095     -13.633
  H      153.951     -42.623     -14.625
  P      151.334     -43.601     -15.057
  C      150.648     -45.633     -13.597
  O      151.023     -44.263     -13.624
  C      149.398     -45.826     -12.737
  O      148.946     -47.204     -12.867
  C      149.624     -45.553     -11.243
  O      148.457     -44.920     -10.709
  C      149.744     -46.947     -10.653
  O      149.437     -46.972      -9.264
  C      148.758     -47.711     -11.532
  N      148.100     -51.792      -8.663
  C      147.721     -50.480      -8.456
  N      147.070     -50.207      -7.305
  N      147.964     -49.516      -9.304
  C      148.600     -49.934     -10.424
  C      149.037     -51.197     -10.743
  C      148.782     -52.253      -9.786
  O      149.113     -53.429      -9.902
  N      149.674     -51.207     -11.960
  C      149.620     -49.953     -12.374
  N      148.976     -49.145     -11.477
  O      150.364     -44.401     -16.049
  O      151.118     -42.127     -15.127
  H      149.457     -47.906      -8.967
  H      149.557     -43.885     -16.239
  H      147.898     -52.494      -7.973
  H      150.031     -49.581     -13.303
  H      147.715     -47.535     -11.240
  H      150.764     -47.327     -10.787
  H      146.819     -50.904      -6.620
  H      150.503     -44.937     -11.039
  H      146.770     -49.253      -7.138
  H      148.597     -45.194     -13.136
  H      151.473     -46.220     -13.179
  H      150.450     -45.971     -14.619
  P      148.375     -43.321     -10.793
  C      149.049     -42.758      -8.351
  O      149.397     -42.695      -9.725
  O      146.937     -43.002     -10.162
  O      148.487     -42.783     -12.182
  H      146.324     -42.720     -10.865
  H      149.822     -42.304      -7.766
  H      148.935     -43.781      -8.059
  H      148.128     -42.237      -8.192

 6  7  8  9  10  11  12  13  14  15  26  29  33  34 0
 6-311+G(2d,p)
 ****
 36  38  39  40  41 0
 6-311+G(2d,p)
 ****
 1  2  3  4  5  16  17  18  19  20  21  22  23  24  25 0
 3-21G
 ****
 27  28  30  31  32  35  37  42  43  44  45  46  47 0
 3-21G
 ****
 48  49 0
 3-21G
 ****


