%nproc=1
%NoSave
%Mem=1900MB
#P OB98/GEN NMR

erre ene a

0 1
  C       28.065       1.245     -15.794
  O       29.198       2.022     -15.444
  P       30.150       1.459     -14.279
  C       28.844       2.665     -12.385
  O       29.261       1.425     -12.944
  C       28.060       2.455     -11.089
  O       27.029       1.465     -11.319
  C       28.914       1.985      -9.911
  O       28.410       2.607      -8.729
  C       28.632       0.496      -9.842
  O       28.867      -0.025      -8.535
  C       27.169       0.447     -10.307
  N       26.796      -0.869     -10.817
  C       25.606      -1.419     -10.333
  O       24.967      -0.834      -9.458
  N       25.197      -2.639     -10.813
  C       25.966      -3.300     -11.622
  N       25.516      -4.502     -12.071
  C       27.287      -2.809     -12.060
  C       27.625      -1.591     -11.641
  O       31.156       2.676     -14.022
  O       30.866       0.194     -14.619
  H       29.813       0.125      -8.313
  H       32.035       2.349     -13.752
  H       27.905      -3.416     -12.706
  H       28.565      -1.140     -11.931
  H       26.492       0.705      -9.481
  H       29.278      -0.039     -10.549
  H       29.974       2.225     -10.032
  H       27.555       3.396     -10.839
  H       24.614      -4.823     -11.744
  H       28.193       3.175     -13.099
  H       26.046      -5.086     -12.703
  H       29.721       3.296     -12.209
  P       29.435       2.848      -7.519
  C       28.172       1.237      -5.970
  O       29.380       1.498      -6.655
  O       28.601       3.856      -6.590
  O       30.786       3.397      -7.833
  H       29.149       4.136      -5.835
  H       28.222       0.233      -5.540
  H       27.324       1.284      -6.657
  H       28.040       1.959      -5.159
  H       27.525       1.735     -16.577
  H       27.431       1.133     -14.939
  H       28.384       0.280     -16.130

 3  4  5  6  7  8  9  10  11  12  13  21  23  27  28  29  30  32 0
 6-311+G(2d,p)
 ****
 34  35 0
 6-311+G(2d,p)
 ****
 1  2  14  15  16  17  18  19  20  22  24  25  26 0
 3-21G
 ****
 31  33  36  37  38  39  40  41  42  43  44  45  46 0
 3-21G
 ****


