%nproc=1
%NoSave
%Mem=1900MB
#P OB98/GEN NMR

erre ene a

0 1
  C     -910.595     -47.933     113.262
  O     -910.019     -48.450     114.452
  H     -909.983     -48.257     112.416
  H     -910.594     -46.842     113.308
  H     -911.613     -48.305     113.122
  P     -910.861     -48.368     115.817
  C     -910.389     -46.430     117.461
  O     -910.937     -46.810     116.202
  C     -910.013     -44.942     117.461
  O     -911.243     -44.158     117.283
  C     -909.359     -44.463     118.777
  O     -908.432     -43.406     118.427
  C     -910.555     -43.908     119.509
  O     -910.170     -43.120     120.620
  C     -911.287     -43.198     118.364
  N     -912.658     -42.829     118.681
  C     -913.054     -41.539     118.383
  O     -912.318     -40.701     117.857
  N     -914.341     -41.209     118.732
  C     -915.230     -42.033     119.341
  O     -916.392     -41.699     119.603
  C     -914.753     -43.387     119.658
  C     -913.512     -43.723     119.325
  O     -910.408     -49.277     116.912
  O     -912.362     -48.707     115.360
  H     -912.556     -49.643     115.534
  H     -909.590     -43.638     121.218
  H     -914.642     -40.273     118.510
  H     -915.433     -44.071     120.174
  H     -913.110     -44.709     119.538
  H     -910.742     -42.319     118.034
  H     -911.161     -44.725     119.917
  H     -908.813     -45.251     119.297
  H     -909.384     -44.732     116.592
  H     -909.487     -47.036     117.636
  H     -911.129     -46.631     118.255
  P     -906.868     -43.646     118.246
  C     -905.658     -43.391     120.509
  O     -906.246     -44.286     119.566
  O     -906.122     -42.435     117.785
  O     -906.736     -44.830     117.153
  H     -905.957     -44.654     116.598
  H     -905.282     -43.947     121.342
  H     -906.397     -42.695     120.849
  H     -904.855     -42.859     120.043

 6  7  8  9  10  11  12  13  14  15  16  27  31  32  33  34  35 0
 6-311+G(2d,p)
 ****
 36  37 0
 6-311+G(2d,p)
 ****
 1  2  3  4  5  17  18  19  20  21  22  23  24  25 0
 3-21G
 ****
 26  28  29  30  38  39  40  41  42  43  44  45 0
 3-21G
 ****


