%nproc=1
%NoSave
%Mem=1900MB
#P OB98/GEN NMR

erre ene a

0 1
  C     -304.911      82.478    -336.739
  O     -304.328      82.061    -337.960
  P     -304.344      80.502    -338.327
  C     -306.487      80.272    -339.793
  O     -305.881      80.066    -338.524
  C     -307.657      79.308    -339.997
  O     -308.531      79.365    -338.829
  C     -308.515      79.617    -341.228
  O     -308.990      78.362    -341.753
  C     -309.680      80.391    -340.633
  O     -310.828      80.412    -341.472
  C     -309.868      79.629    -339.318
  N     -310.667      80.361    -338.342
  C     -312.041      80.155    -338.343
  O     -312.618      79.389    -339.124
  N     -312.770      80.903    -337.459
  C     -312.276      81.884    -336.650
  O     -313.001      82.608    -335.964
  C     -310.818      82.070    -336.686
  C     -310.088      81.314    -337.514
  O     -303.921      79.797    -336.952
  O     -303.443      80.119    -339.456
  H     -311.114      79.493    -341.600
  H     -302.979      79.550    -336.971
  H     -313.766      80.753    -337.444
  H     -310.395      82.831    -336.037
  H     -309.010      81.439    -337.572
  H     -310.337      78.653    -339.506
  H     -309.374      81.428    -340.457
  H     -307.985      80.177    -342.009
  H     -307.257      78.289    -340.053
  H     -305.743      80.110    -340.577
  H     -306.830      81.316    -339.872
  P     -309.181      78.241    -343.341
  C     -306.738      77.330    -343.520
  O     -307.717      78.229    -343.988
  O     -309.753      79.696    -343.691
  O     -310.100      77.125    -343.751
  H     -309.280      80.404    -343.223
  H     -307.170      76.373    -343.207
  H     -306.213      77.776    -342.672
  H     -306.011      77.140    -344.317
  H     -304.819      83.540    -336.644
  H     -304.408      82.002    -335.923
  H     -305.946      82.207    -336.727

 3  4  5  6  7  8  9  10  11  12  13  23  28  29  30  31  32 0
 6-311+G(2d,p)
 ****
 33  34 0
 6-311+G(2d,p)
 ****
 1  2  14  15  16  17  18  19  20  21  22  24  25  26 0
 3-21G
 ****
 27  35  36  37  38  39  40  41  42  43  44  45 0
 3-21G
 ****


