%nproc=1
%NoSave
%Mem=1900MB
#P OB98/GEN NMR

erre ene a

0 1
  C      196.676    -160.243     -68.345
  O      196.891    -158.901     -67.906
  P      196.761    -158.398     -66.398
  C      199.337    -158.344     -65.868
  O      198.109    -157.639     -65.992
  C      200.520    -157.374     -65.706
  O      200.622    -156.558     -66.914
  C      200.333    -156.410     -64.527
  O      201.521    -156.206     -63.765
  C      199.710    -155.187     -65.180
  O      199.837    -154.005     -64.407
  C      200.390    -155.175     -66.547
  N      199.836    -151.000     -69.435
  C      200.702    -151.226     -68.383
  N      201.523    -150.212     -68.040
  N      200.752    -152.351     -67.715
  C      199.829    -153.258     -68.110
  C      198.903    -153.139     -69.124
  C      198.894    -151.913     -69.889
  O      198.158    -151.665     -70.845
  N      198.137    -154.275     -69.236
  C      198.581    -155.065     -68.276
  N      199.614    -154.493     -67.571
  O      196.228    -159.393     -65.421
  O      195.689    -157.193     -66.492
  H      199.462    -154.182     -63.521
  H      195.195    -157.195     -65.645
  H      199.857    -150.123     -69.928
  H      198.202    -156.059     -68.061
  H      201.358    -154.672     -66.521
  H      198.634    -155.385     -65.287
  H      201.454    -149.283     -68.429
  H      199.628    -156.824     -63.794
  H      201.993    -150.304     -67.139
  H      201.443    -157.958     -65.610
  H      199.450    -158.918     -66.794
  H      199.293    -159.054     -65.041
  P      201.755    -156.426     -62.201
  C      202.380    -158.915     -62.250
  O      202.830    -157.595     -62.005
  O      200.400    -157.094     -61.668
  O      202.050    -155.177     -61.434
  H      199.983    -156.511     -61.006
  H      203.105    -159.618     -61.831
  H      202.301    -159.084     -63.326
  H      201.408    -159.084     -61.775
  H      196.829    -160.301     -69.402
  H      195.674    -160.538     -68.113
  H      197.364    -160.895     -67.848

 3  4  5  6  7  8  9  10  11  12  23  26  30  31 0
 6-311+G(2d,p)
 ****
 33  35  36  37  38 0
 6-311+G(2d,p)
 ****
 1  2  13  14  15  16  17  18  19  20  21  22  24  25 0
 3-21G
 ****
 27  28  29  32  34  39  40  41  42  43  44  45  46  47  48  49 0
 3-21G
 ****


