%nproc=1
%NoSave
%Mem=1900MB
#P OB98/GEN NMR

erre ene a

0 1
  C        3.445     276.182     148.969
  O        4.529     276.837     148.305
  P        4.902     276.409     146.806
  C        3.600     278.241     145.541
  O        4.876     277.714     145.870
  C        3.600     279.779     145.630
  O        3.732     280.191     147.015
  C        4.741     280.423     144.831
  O        4.296     281.458     143.952
  C        5.732     280.846     145.905
  O        6.587     281.899     145.489
  C        4.825     281.127     147.108
  N        5.546     281.013     148.380
  C        6.290     282.119     148.777
  O        6.422     283.126     148.082
  N        6.938     282.005     149.977
  C        6.976     280.893     150.763
  O        7.611     280.828     151.808
  C        6.224     279.732     150.262
  C        5.553     279.846     149.111
  O        4.164     275.228     146.266
  O        6.474     276.094     146.907
  H        6.808     282.445     146.275
  H        6.663     275.317     146.344
  H        7.466     282.807     150.287
  H        6.250     278.826     150.849
  H        5.004     279.002     148.715
  H        4.412     282.139     147.060
  H        6.371     279.985     146.142
  H        5.222     279.701     144.161
  H        2.628     280.124     145.258
  H        2.853     277.850     146.232
  H        3.308     277.892     144.545
  P        4.239     281.331     142.358
  C        2.186     279.871     141.750
  O        2.706     281.173     141.921
  O        5.171     280.336     141.751
  O        4.612     282.813     141.864
  H        5.196     282.753     141.083
  H        1.293     279.930     141.117
  H        1.897     279.461     142.722
  H        2.915     279.204     141.275
  H        3.334     276.586     149.954
  H        3.648     275.134     149.034
  H        2.542     276.337     148.416

 3  4  5  6  7  8  9  10  11  12  13  23  28  29  30  31  32 0
 6-311+G(2d,p)
 ****
 33  34 0
 6-311+G(2d,p)
 ****
 1  2  14  15  16  17  18  19  20  21  22  24  25  26  27 0
 3-21G
 ****
 35  36  37  38  39  40  41  42  43  44  45 0
 3-21G
 ****


