%nproc=1
%NoSave
%Mem=1900MB
#P OB98/GEN NMR

erre ene a

0 1
  C      279.558     338.565     -56.614
  O      278.598     339.181     -57.450
  H      280.139     339.345     -56.116
  H      280.238     337.938     -57.196
  H      279.057     337.962     -55.851
  P      277.805     338.258     -58.499
  C      279.621     339.012     -60.167
  O      278.872     337.915     -59.654
  C      280.346     338.632     -61.458
  O      281.014     339.780     -62.027
  C      281.446     337.597     -61.274
  O      280.994     336.317     -60.897
  C      282.245     337.756     -62.557
  O      281.672     337.039     -63.649
  C      282.127     339.281     -62.804
  N      283.360     339.991     -62.492
  C      284.147     340.356     -63.580
  O      283.857     340.089     -64.747
  N      285.306     341.015     -63.284
  C      285.770     341.299     -62.032
  O      286.831     341.876     -61.832
  C      284.915     340.854     -60.919
  C      283.766     340.233     -61.195
  O      276.515     338.823     -59.013
  O      277.640     336.864     -57.733
  H      282.299     337.107     -64.394
  H      276.960     336.294     -58.172
  H      285.883     341.302     -64.061
  H      285.257     341.051     -59.913
  H      283.116     339.897     -60.389
  H      281.880     339.477     -63.856
  H      283.275     337.410     -62.447
  H      282.099     337.933     -60.458
  H      279.596     338.292     -62.180
  H      280.360     339.294     -59.409
  H      278.953     339.861     -60.344
  P      281.832     335.311     -59.987
  C      282.503     333.761     -61.984
  O      282.927     334.586     -60.906
  O      281.057     334.474     -59.023
  O      282.740     336.333     -59.125
  H      282.859     335.934     -58.241
  H      283.360     333.361     -62.486
  H      281.926     334.342     -62.672
  H      281.905     332.959     -61.605

 6  7  8  9  10  11  12  13  14  15  16  26  31  32  33  34  35 0
 6-311+G(2d,p)
 ****
 36  37 0
 6-311+G(2d,p)
 ****
 1  2  3  4  5  17  18  19  20  21  22  23  24  25 0
 3-21G
 ****
 27  28  29  30  38  39  40  41  42  43  44  45 0
 3-21G
 ****


