%nproc=1
%NoSave
%Mem=1900MB
#P OB98/GEN NMR

erre ene a

0 1
  C     -337.106    -362.378     394.736
  O     -335.683    -362.314     394.595
  P     -334.982    -363.306     393.546
  C     -333.482    -361.594     392.279
  O     -334.601    -362.471     392.232
  C     -333.883    -360.189     391.805
  O     -334.782    -359.545     392.733
  C     -332.708    -359.238     391.657
  O     -332.041    -359.426     390.418
  C     -333.417    -357.893     391.674
  O     -333.984    -357.622     390.375
  C     -334.534    -358.124     392.702
  N     -335.771    -354.919     396.506
  C     -336.287    -355.097     395.265
  N     -335.894    -355.954     394.305
  C     -334.858    -356.696     394.726
  C     -334.222    -356.631     395.960
  C     -334.719    -355.687     396.875
  N     -334.191    -355.516     398.129
  N     -333.187    -357.540     396.025
  C     -333.208    -358.158     394.861
  N     -334.192    -357.677     394.039
  O     -336.198    -364.227     393.054
  O     -333.876    -364.122     394.129
  H     -334.509    -356.802     390.459
  H     -335.875    -365.130     392.876
  H     -337.138    -354.464     395.014
  H     -332.537    -358.954     394.571
  H     -335.469    -357.630     392.418
  H     -332.739    -357.063     391.904
  H     -332.026    -359.316     392.512
  H     -334.400    -360.296     390.841
  H     -332.669    -361.982     391.660
  H     -334.618    -354.844     398.748
  H     -333.421    -356.103     398.421
  H     -333.101    -361.562     393.304
  P     -330.697    -360.304     390.432
  C     -331.094    -362.542     389.184
  O     -331.178    -361.830     390.400
  O     -330.151    -360.096     391.925
  O     -329.688    -359.907     389.404
  H     -329.175    -360.154     391.936
  H     -331.163    -363.612     389.400
  H     -330.146    -362.350     388.676
  H     -331.927    -362.263     388.532
  H     -337.425    -361.663     395.466
  H     -337.389    -363.360     395.052
  H     -337.568    -362.159     393.796

 3  4  5  6  7  8  9  10  11  12  22  25  29  30  31  32 0
 6-311+G(2d,p)
 ****
 33  36  37 0
 6-311+G(2d,p)
 ****
 1  2  13  14  15  16  17  18  19  20  21  23  24  26 0
 3-21G
 ****
 27  28  34  35  38  39  40  41  42  43  44  45  46  47  48 0
 3-21G
 ****


