%nproc=1
%NoSave
%Mem=1900MB
#P OB98/GEN NMR

erre ene a

0 1
  C      -69.792     -60.628      80.604
  O      -69.699     -60.439      81.999
  P      -68.972     -61.513      82.938
  C      -71.024     -62.992      83.425
  O      -70.086     -62.064      83.958
  C      -72.336     -62.936      84.217
  O      -73.271     -63.898      83.639
  C      -72.151     -63.291      85.707
  O      -72.685     -62.326      86.614
  C      -72.760     -64.681      85.797
  O      -73.146     -65.055      87.106
  C      -73.870     -64.603      84.744
  N      -74.371     -65.920      84.359
  C      -75.489     -66.396      85.036
  O      -76.081     -65.781      85.918
  N      -75.893     -67.661      84.711
  C      -75.238     -68.522      83.883
  O      -75.602     -69.678      83.714
  C      -74.040     -67.978      83.227
  C      -73.677     -66.716      83.470
  O      -67.718     -61.043      83.594
  O      -68.767     -62.767      81.963
  H      -73.914     -64.510      87.360
  H      -69.587     -63.135      81.592
  H      -76.702     -68.018      85.194
  H      -73.494     -68.642      82.573
  H      -72.799     -66.288      83.001
  H      -74.712     -64.004      85.094
  H      -72.000     -65.401      85.471
  H      -71.088     -63.342      85.970
  H      -72.754     -61.932      84.100
  H      -70.605     -63.998      83.499
  H      -71.192     -62.782      82.364
  P      -71.862     -61.615      87.787
  C      -72.273     -63.378      89.653
  O      -72.497     -62.064      89.185
  O      -71.666     -60.144      87.625
  O      -70.453     -62.376      87.768
  H      -69.753     -61.774      88.082
  H      -73.119     -63.675      90.278
  H      -71.367     -63.394      90.263
  H      -72.174     -64.088      88.828
  H      -70.311     -59.801      80.166
  H      -70.326     -61.533      80.401
  H      -68.809     -60.693      80.187

 3  4  5  6  7  8  9  10  11  12  13  23  28  29  30  31  32 0
 6-311+G(2d,p)
 ****
 33  34 0
 6-311+G(2d,p)
 ****
 1  2  14  15  16  17  18  19  20  21  22  24  25  26  27 0
 3-21G
 ****
 35  36  37  38  39  40  41  42  43  44  45 0
 3-21G
 ****


