%nproc=1
%NoSave
%Mem=1900MB
#P OB98/GEN NMR

erre ene a

0 1
  C      743.994    -123.455    -268.025
  O      744.002    -122.723    -269.228
  H      744.926    -123.256    -267.486
  H      743.929    -124.531    -268.219
  H      743.150    -123.143    -267.398
  P      742.864    -123.041    -270.320
  C      742.425    -125.018    -271.930
  O      743.378    -124.344    -271.105
  C      742.964    -125.229    -273.346
  O      743.063    -123.963    -274.035
  C      744.374    -125.807    -273.376
  O      744.452    -127.157    -272.955
  C      744.849    -125.443    -274.777
  O      744.462    -126.380    -275.780
  C      744.115    -124.093    -275.018
  N      745.034    -122.960    -274.980
  C      745.419    -122.459    -276.218
  O      745.054    -122.939    -277.294
  N      746.298    -121.406    -276.187
  C      746.841    -120.855    -275.067
  O      747.655    -119.940    -275.111
  C      746.418    -121.444    -273.791
  C      745.541    -122.451    -273.801
  O      742.478    -121.903    -271.219
  O      741.649    -123.606    -269.444
  H      744.950    -127.210    -275.599
  H      740.805    -123.591    -269.955
  H      746.584    -121.027    -277.078
  H      746.831    -121.028    -272.870
  H      745.209    -122.906    -272.867
  H      743.623    -124.103    -275.994
  H      745.938    -125.357    -274.821
  H      744.999    -125.239    -272.677
  H      742.256    -125.857    -273.894
  H      741.521    -124.389    -271.978
  H      742.156    -125.979    -271.466
  P      745.611    -127.712    -272.010
  C      748.142    -128.049    -272.540
  O      746.793    -128.281    -272.943
  O      745.190    -128.518    -270.827
  O      746.253    -126.341    -271.449
  H      746.552    -126.506    -270.533
  H      748.808    -128.484    -273.256
  H      748.309    -128.494    -271.581
  H      748.320    -126.996    -272.481

 6  7  8  9  10  11  12  13  14  15  16  26  31  32  33  34  35 0
 6-311+G(2d,p)
 ****
 36  37 0
 6-311+G(2d,p)
 ****
 1  2  3  4  5  17  18  19  20  21  22  23  24  25 0
 3-21G
 ****
 27  28  29  30  38  39  40  41  42  43  44  45 0
 3-21G
 ****


