%nproc=1
%NoSave
%Mem=1900MB
#P OB98/GEN NMR

erre ene a

0 1
  C     -265.801      94.115      45.965
  O     -265.015      94.624      44.906
  H     -266.475      93.350      45.567
  H     -266.400      94.915      46.410
  H     -265.160      93.663      46.727
  P     -264.028      95.840      45.271
  C     -264.496      98.214      46.253
  O     -265.034      97.016      45.708
  C     -265.595      98.991      46.971
  O     -266.131      98.217      48.067
  C     -265.126     100.301      47.590
  O     -264.999     101.349      46.641
  C     -266.258     100.561      48.567
  O     -267.412     101.044      47.855
  C     -266.502      99.141      49.126
  N     -265.737      98.861      50.343
  C     -266.294      99.302      51.549
  O     -267.367      99.901      51.563
  N     -265.600      99.083      52.718
  C     -264.457      98.466      52.686
  N     -263.809      98.288      53.871
  C     -263.846      97.971      51.439
  C     -264.528      98.201      50.321
  O     -263.505      96.343      43.844
  O     -262.947      95.535      46.253
  H     -268.012     101.430      48.518
  H     -262.984      97.175      43.954
  H     -262.887      97.473      51.463
  H     -264.139      97.865      49.366
  H     -267.568      98.982      49.339
  H     -266.011     101.311      49.324
  H     -264.196     100.173      48.157
  H     -266.415      99.157      46.258
  H     -264.223      98.694      54.697
  H     -264.083      98.812      45.432
  H     -262.842      97.986      53.920
  H     -263.695      97.977      46.962
  P     -263.926     102.504      46.945
  C     -263.841     104.492      48.614
  O     -264.652     103.587      47.881
  O     -263.799     103.257      45.540
  O     -262.599     102.018      47.446
  H     -262.875     103.524      45.364
  H     -264.465     105.147      49.186
  H     -263.247     105.068      47.936
  H     -263.200     103.944      49.273

 6  7  8  9  10  11  12  13  14  15  16  26  30  31  32  33  35 0
 6-311+G(2d,p)
 ****
 37  38 0
 6-311+G(2d,p)
 ****
 1  2  3  4  5  17  18  19  20  21  22  23  24  25 0
 3-21G
 ****
 27  28  29  34  36  39  40  41  42  43  44  45  46 0
 3-21G
 ****


