%nproc=1
%NoSave
%Mem=1900MB
#P OB98/GEN NMR

erre ene a

0 1
  C     -251.944     -39.506     -84.613
  O     -251.199     -38.769     -83.662
  H     -252.295     -40.443     -84.173
  H     -252.809     -38.913     -84.916
  H     -251.331     -39.714     -85.496
  P     -249.861     -39.460     -83.109
  C     -250.913     -41.192     -81.488
  O     -250.200     -39.971     -81.625
  C     -251.215     -41.460     -80.018
  O     -251.853     -42.744     -79.869
  C     -249.989     -41.501     -79.111
  O     -249.542     -40.198     -78.766
  C     -250.553     -42.232     -77.903
  O     -251.320     -41.320     -77.095
  C     -251.487     -43.263     -78.560
  N     -249.977     -47.524     -76.159
  C     -250.629     -46.424     -75.723
  N     -251.014     -45.338     -76.426
  C     -250.679     -45.470     -77.718
  C     -250.035     -46.540     -78.319
  C     -249.671     -47.606     -77.479
  N     -248.944     -48.697     -77.927
  N     -249.848     -46.307     -79.670
  C     -250.355     -45.109     -79.873
  N     -250.875     -44.568     -78.727
  O     -248.889     -38.206     -82.867
  O     -249.244     -40.469     -84.017
  H     -251.412     -41.732     -76.218
  H     -248.297     -38.108     -83.636
  H     -250.867     -46.408     -74.663
  H     -250.361     -44.594     -80.824
  H     -252.417     -43.400     -77.995
  H     -249.780     -42.664     -77.261
  H     -249.183     -42.104     -79.549
  H     -251.927     -40.698     -79.674
  H     -250.309     -42.014     -81.889
  H     -248.362     -49.120     -77.209
  H     -248.520     -48.574     -78.840
  H     -251.843     -41.122     -82.060
  P     -248.144     -39.703     -79.379
  C     -247.008     -40.814     -77.337
  O     -247.103     -39.659     -78.157
  O     -248.423     -38.159     -79.700
  O     -247.686     -40.435     -80.595
  H     -248.238     -37.981     -80.642
  H     -246.282     -40.647     -76.569
  H     -246.710     -41.651     -77.933
  H     -247.960     -41.014     -76.891

 6  7  8  9  10  11  12  13  14  15  25  28  32  33  34  35 0
 6-311+G(2d,p)
 ****
 36  39  40 0
 6-311+G(2d,p)
 ****
 1  2  3  4  5  16  17  18  19  20  21  22  23  24 0
 3-21G
 ****
 26  27  29  30  31  37  38  41  42  43  44  45  46  47  48 0
 3-21G
 ****


