%nproc=1
%NoSave
%Mem=1900MB
#P OB98/GEN NMR

erre ene a

0 1
  C      397.081     567.816     440.935
  O      396.581     567.550     442.244
  P      396.978     566.164     442.954
  C      399.170     565.404     444.079
  O      398.212     566.452     443.946
  C      400.576     565.976     444.286
  O      401.002     566.762     443.150
  C      400.664     566.919     445.486
  O      400.652     566.184     446.695
  C      401.966     567.654     445.177
  O      403.102     566.881     445.593
  C      401.927     567.757     443.639
  N      401.588     569.090     443.169
  C      402.646     570.004     443.055
  O      403.788     569.668     443.381
  N      402.374     571.265     442.578
  C      401.158     571.595     442.261
  N      400.951     572.857     441.797
  C      400.006     570.668     442.380
  C      400.288     569.458     442.843
  O      397.142     564.997     442.044
  O      395.759     565.930     443.979
  H      403.088     566.056     445.076
  H      395.643     564.966     444.106
  H      399.006     570.991     442.095
  H      399.502     568.715     442.968
  H      402.912     567.508     443.217
  H      402.026     568.607     445.709
  H      399.831     567.624     445.467
  H      401.271     565.134     444.410
  H      401.753     573.471     441.739
  H      399.157     564.777     443.173
  H      400.058     573.183     441.475
  H      398.880     564.757     444.914
  P      399.224     565.862     447.351
  C      397.526     564.343     446.102
  O      398.763     564.427     446.812
  O      398.235     566.878     446.595
  O      399.158     566.040     448.838
  H      397.534     567.157     447.199
  H      397.520     563.396     445.544
  H      397.411     565.168     445.407
  H      396.705     564.322     446.815
  H      396.729     568.771     440.606
  H      396.739     567.058     440.262
  H      398.151     567.818     440.955

 3  4  5  6  7  8  9  10  11  12  13  23  27  28  29  30  32 0
 6-311+G(2d,p)
 ****
 34  35 0
 6-311+G(2d,p)
 ****
 1  2  14  15  16  17  18  19  20  21  22  24  25  26 0
 3-21G
 ****
 31  33  36  37  38  39  40  41  42  43  44  45  46 0
 3-21G
 ****


