%nproc=1
%NoSave
%Mem=1900MB
#P OB98/GEN NMR

erre ene a

0 1
  C      324.971    -390.570    -379.490
  O      326.262    -390.342    -380.063
  P      327.259    -391.583    -380.269
  C      328.506    -390.663    -382.330
  O      328.607    -391.050    -380.969
  C      329.665    -389.726    -382.717
  O      329.391    -388.367    -382.266
  C      331.001    -390.157    -382.083
  O      332.092    -389.830    -382.961
  C      331.103    -389.245    -380.867
  O      332.450    -389.128    -380.408
  C      330.492    -387.958    -381.424
  N      331.907    -384.822    -377.621
  C      332.628    -385.510    -378.528
  N      332.177    -386.315    -379.522
  C      330.840    -386.353    -379.543
  C      329.970    -385.694    -378.676
  C      330.554    -384.899    -377.668
  N      329.823    -384.224    -376.727
  N      328.656    -385.961    -378.995
  C      328.731    -386.824    -379.999
  N      330.024    -387.061    -380.386
  O      326.652    -392.796    -380.898
  O      327.744    -391.889    -378.769
  H      332.960    -388.724    -381.131
  H      327.765    -392.864    -378.638
  H      333.706    -385.421    -378.442
  H      327.883    -387.307    -380.473
  H      331.209    -387.406    -382.045
  H      330.486    -389.654    -380.049
  H      331.055    -391.215    -381.814
  H      329.743    -389.694    -383.815
  H      327.552    -390.150    -382.500
  H      330.326    -383.778    -375.972
  H      328.825    -384.385    -376.657
  H      328.492    -391.557    -382.965
  P      332.838    -391.089    -383.646
  C      333.250    -389.828    -385.907
  O      333.791    -390.460    -384.767
  O      331.896    -392.165    -384.094
  O      333.842    -391.562    -382.477
  H      334.374    -390.841    -382.094
  H      334.048    -389.357    -386.477
  H      332.540    -389.053    -385.609
  H      332.742    -390.562    -386.547
  H      324.441    -389.643    -379.425
  H      325.084    -390.986    -378.511
  H      324.423    -391.252    -380.106

 3  4  5  6  7  8  9  10  11  12  22  25  29  30  31  32 0
 6-311+G(2d,p)
 ****
 33  36  37 0
 6-311+G(2d,p)
 ****
 1  2  13  14  15  16  17  18  19  20  21  23  24  26 0
 3-21G
 ****
 27  28  34  35  38  39  40  41  42  43  44  45  46  47  48 0
 3-21G
 ****


