%nproc=1
%NoSave
%Mem=1900MB
#P OB98/GEN NMR

erre ene a

0 1
  C       62.951     148.460     583.394
  O       63.426     149.790     583.294
  H       63.243     147.914     582.491
  H       61.862     148.447     583.476
  H       63.397     147.960     584.261
  P       63.119     150.797     584.502
  C       61.017     151.200     583.051
  O       61.575     151.197     584.363
  C       60.004     152.326     582.913
  O       58.788     151.997     583.620
  C       60.481     153.665     583.476
  O       61.325     154.323     582.546
  C       59.150     154.374     583.680
  O       58.651     154.835     582.415
  C       58.271     153.220     584.209
  N       56.422     154.974     588.593
  C       56.227     155.436     587.304
  N       55.474     156.548     587.168
  N       56.751     154.870     586.239
  C       57.540     153.809     586.542
  C       57.819     153.272     587.782
  C       57.191     153.873     588.937
  O       57.318     153.491     590.099
  N       58.717     152.240     587.692
  C       58.953     152.125     586.397
  N       58.277     153.066     585.655
  O       64.038     151.975     584.634
  O       63.147     149.864     585.801
  H       59.129     155.660     582.207
  H       64.031     149.848     586.206
  H       56.006     155.471     589.369
  H       59.605     151.382     585.947
  H       57.223     153.324     583.900
  H       59.217     155.229     584.346
  H       55.290     157.171     587.942
  H       60.967     153.541     584.454
  H       55.362     156.925     586.232
  H       59.742     152.418     581.851
  H       60.537     150.226     582.900
  H       61.809     151.320     582.305
  P       62.727     154.970     583.007
  C       61.603     157.302     583.018
  O       62.318     156.325     583.766
  O       63.726     155.139     581.916
  O       63.225     154.038     584.203
  H       63.766     153.264     583.904
  H       61.396     158.147     583.641
  H       60.683     156.882     582.670
  H       62.193     157.612     582.181

 6  7  8  9  10  11  12  13  14  15  26  29  33  34 0
 6-311+G(2d,p)
 ****
 36  38  39  40  41 0
 6-311+G(2d,p)
 ****
 1  2  3  4  5  16  17  18  19  20  21  22  23  24  25 0
 3-21G
 ****
 27  28  30  31  32  35  37  42  43  44  45  46  47 0
 3-21G
 ****
 48  49 0
 3-21G
 ****


