%nproc=1
%NoSave
%Mem=1900MB
#P OB98/GEN NMR

erre ene a

0 1
  C      -97.095     -75.149     -75.962
  O      -95.973     -74.887     -75.112
  P      -94.502     -75.288     -75.606
  C      -93.278     -77.396     -76.430
  O      -94.423     -76.885     -75.762
  C      -93.043     -78.885     -76.135
  O      -92.634     -79.078     -74.755
  C      -94.270     -79.777     -76.380
  O      -93.779     -81.027     -76.885
  C      -94.831     -79.944     -74.985
  O      -95.710     -81.055     -74.880
  C      -93.530     -80.042     -74.171
  N      -93.740     -79.799     -72.755
  C      -94.665     -80.610     -72.094
  O      -95.338     -81.423     -72.727
  N      -94.816     -80.463     -70.735
  C      -94.214     -79.490     -70.122
  N      -94.380     -79.383     -68.779
  C      -93.381     -78.492     -70.825
  C      -93.165     -78.719     -72.118
  O      -93.378     -74.672     -74.845
  O      -94.498     -74.788     -77.136
  H      -96.408     -80.978     -75.565
  H      -93.602     -74.471     -77.360
  H      -92.972     -77.643     -70.297
  H      -92.557     -78.060     -72.717
  H      -93.078     -81.039     -74.294
  H      -95.391     -79.043     -74.702
  H      -94.981     -79.358     -77.101
  H      -92.210     -79.221     -76.772
  H      -94.982     -80.053     -68.311
  H      -92.397     -76.824     -76.122
  H      -93.903     -78.674     -68.223
  H      -93.390     -77.217     -77.510
  P      -93.912     -81.342     -78.451
  C      -95.315     -83.076     -79.797
  O      -95.235     -82.215     -78.677
  O      -92.759     -82.441     -78.668
  O      -93.688     -80.181     -79.375
  H      -92.466     -82.417     -79.601
  H      -96.139     -83.775     -79.644
  H      -94.389     -83.643     -79.923
  H      -95.506     -82.492     -80.706
  H      -97.992     -74.821     -75.480
  H      -97.158     -76.199     -76.156
  H      -96.973     -74.623     -76.886

 3  4  5  6  7  8  9  10  11  12  13  23  27  28  29  30  32 0
 6-311+G(2d,p)
 ****
 34  35 0
 6-311+G(2d,p)
 ****
 1  2  14  15  16  17  18  19  20  21  22  24  25  26 0
 3-21G
 ****
 31  33  36  37  38  39  40  41  42  43  44  45  46 0
 3-21G
 ****


