%nproc=1
%NoSave
%Mem=1900MB
#P OB98/GEN NMR

erre ene a

0 1
  C     -356.396     465.216      28.891
  O     -357.783     465.467      28.994
  H     -355.883     465.746      29.695
  H     -356.020     465.584      27.932
  H     -356.186     464.147      28.986
  P     -358.787     464.660      28.042
  C     -359.167     462.787      29.777
  O     -359.758     463.819      29.001
  C     -360.201     462.157      30.720
  O     -359.577     461.021      31.400
  C     -360.721     463.109      31.814
  O     -362.066     462.703      32.120
  C     -359.774     462.779      32.955
  O     -360.193     463.318      34.183
  C     -359.735     461.250      32.816
  N     -358.683     460.581      33.569
  C     -358.940     460.255      34.895
  O     -360.000     460.489      35.478
  N     -357.919     459.633      35.566
  C     -356.704     459.299      35.046
  O     -355.838     458.713      35.684
  C     -356.486     459.675      33.640
  C     -357.469     460.282      32.976
  O     -358.154     463.878      26.940
  O     -359.760     465.799      27.470
  H     -359.495     466.025      26.558
  H     -360.285     464.290      34.092
  H     -358.093     459.387      36.525
  H     -355.527     459.436      33.200
  H     -357.341     460.562      31.932
  H     -360.706     460.827      33.105
  H     -358.787     463.213      32.758
  H     -360.718     464.158      31.512
  H     -361.027     461.753      30.120
  H     -358.353     463.225      30.365
  H     -358.754     462.026      29.109
  P     -363.359     463.559      31.711
  C     -364.066     463.122      29.264
  O     -364.187     462.723      30.620
  O     -363.053     464.958      31.289
  O     -364.302     463.540      33.007
  H     -364.871     464.334      33.008
  H     -364.666     462.484      28.650
  H     -363.042     463.049      28.961
  H     -364.398     464.134      29.159

 6  7  8  9  10  11  12  13  14  15  16  27  31  32  33  34  35 0
 6-311+G(2d,p)
 ****
 36  37 0
 6-311+G(2d,p)
 ****
 1  2  3  4  5  17  18  19  20  21  22  23  24  25 0
 3-21G
 ****
 26  28  29  30  38  39  40  41  42  43  44  45 0
 3-21G
 ****


