%nproc=1
%NoSave
%Mem=1900MB
#P OB98/GEN NMR

erre ene a

0 1
  C        2.916     -21.036     -27.607
  O        2.906     -22.452     -27.550
  P        4.315     -23.218     -27.638
  C        4.099     -22.915     -30.217
  O        4.939     -22.870     -29.075
  C        4.906     -22.642     -31.488
  O        5.290     -21.242     -31.499
  C        6.192     -23.465     -31.622
  O        6.397     -23.694     -33.021
  C        7.259     -22.522     -31.099
  O        8.564     -22.859     -31.558
  C        6.729     -21.186     -31.608
  N       10.735     -18.214     -30.777
  C       10.615     -19.333     -31.581
  N       11.701     -19.666     -32.310
  N        9.528     -20.055     -31.665
  C        8.520     -19.589     -30.891
  C        8.529     -18.521     -30.026
  C        9.723     -17.709     -29.971
  O        9.845     -16.662     -29.340
  N        7.346     -18.414     -29.346
  C        6.594     -19.367     -29.859
  N        7.246     -20.076     -30.831
  O        3.880     -24.749     -27.776
  O        5.251     -22.986     -26.494
  H        9.183     -22.178     -31.225
  H        3.859     -25.189     -26.904
  H       11.591     -17.687     -30.768
  H        5.578     -19.585     -29.573
  H        6.986     -21.004     -32.659
  H        7.270     -22.549     -30.003
  H       12.559     -19.137     -32.318
  H        6.163     -24.414     -31.080
  H       11.629     -20.462     -32.932
  H        4.253     -22.808     -32.353
  H        3.329     -22.143     -30.121
  H        3.605     -23.890     -30.272
  P        6.727     -25.189     -33.496
  C        9.214     -24.539     -33.810
  O        8.286     -25.443     -33.246
  O        6.624     -25.086     -35.092
  O        5.797     -26.233     -32.970
  H        6.306     -25.934     -35.455
  H       10.148     -24.596     -33.247
  H        8.845     -23.509     -33.776
  H        9.409     -24.819     -34.848
  H        1.913     -20.669     -27.537
  H        3.348     -20.719     -28.533
  H        3.494     -20.650     -26.793

 3  4  5  6  7  8  9  10  11  12  23  26  30  31 0
 6-311+G(2d,p)
 ****
 33  35  36  37  38 0
 6-311+G(2d,p)
 ****
 1  2  13  14  15  16  17  18  19  20  21  22  24  25 0
 3-21G
 ****
 27  28  29  32  34  39  40  41  42  43  44  45  46  47  48  49 0
 3-21G
 ****


