%nproc=1
%NoSave
%Mem=1900MB
#P OB98/GEN NMR

erre ene a

0 1
  C      109.720    -247.487    -185.391
  O      108.841    -246.386    -185.486
  H      110.302    -247.547    -186.313
  H      109.157    -248.416    -185.272
  H      110.407    -247.355    -184.550
  P      107.819    -246.107    -184.282
  C      108.475    -243.632    -183.962
  O      107.451    -244.547    -184.339
  C      109.362    -243.304    -185.169
  O      108.492    -242.927    -186.265
  C      110.322    -242.138    -184.892
  O      111.680    -242.456    -185.191
  C      109.679    -240.974    -185.636
  O      110.585    -239.964    -186.034
  C      108.938    -241.661    -186.786
  N      107.809    -240.891    -187.304
  C      107.952    -240.315    -188.563
  O      108.948    -240.413    -189.276
  N      106.875    -239.593    -189.009
  C      105.708    -239.385    -188.335
  O      104.777    -238.731    -188.788
  C      105.629    -239.994    -186.998
  C      106.665    -240.707    -186.551
  O      108.254    -246.598    -182.942
  O      106.463    -246.814    -184.755
  H      110.984    -239.597    -185.218
  H      106.335    -247.643    -184.254
  H      106.960    -239.184    -189.927
  H      104.722    -239.839    -186.429
  H      106.640    -241.173    -185.569
  H      109.614    -241.854    -187.619
  H      108.946    -240.503    -184.971
  H      110.350    -241.902    -183.822
  H      109.898    -244.208    -185.469
  H      109.068    -244.100    -183.170
  H      108.021    -242.713    -183.573
  P      112.611    -243.413    -184.318
  C      114.174    -244.598    -186.071
  O      114.005    -243.596    -185.076
  O      111.964    -244.650    -183.791
  O      113.013    -242.500    -183.050
  H      113.113    -243.114    -182.293
  H      115.172    -244.556    -186.454
  H      113.479    -244.431    -186.867
  H      113.998    -245.562    -185.640

 6  7  8  9  10  11  12  13  14  15  16  26  31  32  33  34  35 0
 6-311+G(2d,p)
 ****
 36  37 0
 6-311+G(2d,p)
 ****
 1  2  3  4  5  17  18  19  20  21  22  23  24  25 0
 3-21G
 ****
 27  28  29  30  38  39  40  41  42  43  44  45 0
 3-21G
 ****


