%nproc=1
%NoSave
%Mem=1900MB
#P OB98/GEN NMR

erre ene a

0 1
  C     -107.718    -147.797    -332.142
  O     -108.743    -146.889    -331.754
  P     -108.875    -146.542    -330.191
  C     -111.412    -147.065    -330.367
  O     -110.189    -147.315    -329.685
  C     -112.223    -148.352    -330.501
  O     -111.472    -149.340    -331.240
  C     -112.582    -149.017    -329.178
  O     -113.719    -148.425    -328.572
  C     -112.900    -150.427    -329.638
  O     -114.225    -150.471    -330.201
  C     -111.853    -150.651    -330.741
  N     -109.939    -155.219    -329.473
  C     -111.179    -154.833    -329.833
  N     -111.617    -153.593    -330.146
  C     -110.623    -152.691    -330.017
  C     -109.317    -152.937    -329.621
  C     -108.974    -154.273    -329.352
  N     -107.698    -154.672    -329.012
  N     -108.590    -151.768    -329.606
  C     -109.436    -150.839    -329.998
  N     -110.675    -151.350    -330.263
  O     -109.329    -145.006    -330.198
  O     -107.634    -146.756    -329.391
  H     -114.855    -150.459    -329.451
  H     -109.094    -144.582    -329.351
  H     -111.924    -155.622    -329.888
  H     -109.193    -149.784    -330.101
  H     -112.255    -151.215    -331.589
  H     -112.871    -151.160    -328.824
  H     -111.718    -149.039    -328.498
  H     -113.133    -148.122    -331.073
  H     -111.194    -146.676    -331.366
  H     -107.492    -155.657    -329.014
  H     -106.948    -153.996    -329.116
  H     -111.983    -146.310    -329.810
  P     -113.444    -147.356    -327.400
  C     -114.230    -149.098    -325.634
  O     -113.199    -148.237    -326.081
  O     -114.880    -146.699    -327.165
  O     -112.394    -146.348    -327.726
  H     -114.786    -145.798    -326.798
  H     -113.800    -149.828    -324.939
  H     -114.684    -149.639    -326.470
  H     -114.995    -148.519    -325.106
  H     -107.746    -147.935    -333.203
  H     -107.872    -148.738    -331.656
  H     -106.765    -147.401    -331.859

 3  4  5  6  7  8  9  10  11  12  22  25  29  30  31  32 0
 6-311+G(2d,p)
 ****
 33  36  37 0
 6-311+G(2d,p)
 ****
 1  2  13  14  15  16  17  18  19  20  21  23  24  26 0
 3-21G
 ****
 27  28  34  35  38  39  40  41  42  43  44  45  46  47  48 0
 3-21G
 ****


