%nproc=1
%NoSave
%Mem=1900MB
#P OB98/GEN NMR

erre ene a

0 1
  C     -902.946    1826.568     831.843
  O     -903.730    1827.668     831.424
  H     -902.617    1826.016     830.961
  H     -903.525    1825.906     832.474
  H     -902.057    1826.913     832.393
  P     -904.404    1828.552     832.598
  C     -906.594    1828.827     831.218
  O     -905.483    1829.455     831.810
  C     -907.323    1829.810     830.267
  O     -907.972    1830.846     831.029
  C     -906.378    1830.541     829.322
  O     -905.985    1829.747     828.203
  C     -907.289    1831.688     828.880
  O     -908.309    1831.174     827.963
  C     -907.917    1832.058     830.244
  N     -907.153    1833.114     830.961
  C     -907.191    1834.406     830.393
  O     -907.837    1834.634     829.353
  N     -906.482    1835.410     830.988
  C     -905.810    1835.138     832.071
  N     -905.116    1836.175     832.615
  C     -905.744    1833.825     832.722
  C     -906.450    1832.858     832.112
  O     -903.261    1829.597     832.981
  O     -904.955    1827.768     833.755
  H     -907.848    1831.033     827.124
  H     -903.625    1830.282     833.602
  H     -905.164    1833.648     833.581
  H     -906.442    1831.859     832.494
  H     -908.955    1832.404     830.105
  H     -906.773    1832.500     828.378
  H     -905.529    1830.972     829.825
  H     -908.092    1829.250     829.743
  H     -905.126    1837.067     832.133
  H     -907.285    1828.499     831.995
  H     -904.441    1836.073     833.385
  H     -906.267    1827.953     830.643
  P     -904.449    1829.293     828.143
  C     -904.394    1829.536     825.550
  O     -904.194    1828.698     826.662
  O     -904.431    1827.983     829.073
  O     -903.436    1830.318     828.580
  H     -903.573    1827.911     829.548
  H     -904.184    1828.993     824.652
  H     -903.740    1830.380     825.618
  H     -905.410    1829.872     825.535

 6  7  8  9  10  11  12  13  14  15  16  26  30  31  32  33  35 0
 6-311+G(2d,p)
 ****
 37  38 0
 6-311+G(2d,p)
 ****
 1  2  3  4  5  17  18  19  20  21  22  23  24  25 0
 3-21G
 ****
 27  28  29  34  36  39  40  41  42  43  44  45  46 0
 3-21G
 ****


