%nproc=1
%NoSave
%Mem=1900MB
#P OB98/GEN NMR

erre ene a

0 1
  C      118.260     374.210     -69.489
  O      119.521     374.630     -68.995
  P      120.825     374.187     -69.815
  C      122.052     372.793     -67.983
  O      121.321     372.792     -69.200
  C      122.444     371.363     -67.614
  O      121.267     370.550     -67.415
  C      123.249     370.653     -68.697
  O      124.609     371.055     -68.684
  C      123.046     369.190     -68.326
  O      123.968     368.786     -67.300
  C      121.599     369.197     -67.784
  N      120.641     368.646     -68.742
  C      119.995     367.476     -68.351
  O      120.219     366.916     -67.277
  N      119.109     366.954     -69.249
  C      118.853     367.440     -70.503
  O      118.087     366.892     -71.287
  C      119.589     368.662     -70.871
  C      120.441     369.193     -69.995
  O      121.946     375.228     -69.342
  O      120.656     374.186     -71.296
  H      123.865     367.819     -67.201
  H      122.542     375.436     -70.089
  H      118.610     366.124     -68.976
  H      119.409     369.072     -71.857
  H      121.002     370.082     -70.253
  H      121.540     368.607     -66.862
  H      123.203     368.520     -69.175
  H      122.798     370.836     -69.682
  H      123.007     371.385     -66.672
  H      121.437     373.222     -67.186
  H      122.944     373.415     -68.104
  P      125.477     370.730     -69.998
  C      127.141     369.431     -68.458
  O      126.333     369.435     -69.620
  O      126.518     371.947     -69.969
  O      124.649     370.645     -71.237
  H      126.737     372.223     -69.064
  H      126.678     369.998     -67.647
  H      128.115     369.863     -68.694
  H      127.280     368.397     -68.131
  H      117.486     374.575     -68.847
  H      118.226     373.141     -69.516
  H      118.117     374.597     -70.476

 3  4  5  6  7  8  9  10  11  12  13  23  28  29  30  31  32 0
 6-311+G(2d,p)
 ****
 33  34 0
 6-311+G(2d,p)
 ****
 1  2  14  15  16  17  18  19  20  21  22  24  25  26 0
 3-21G
 ****
 27  35  36  37  38  39  40  41  42  43  44  45 0
 3-21G
 ****


