%nproc=1
%NoSave
%Mem=1900MB
#P OB98/GEN NMR

erre ene a

0 1
  C     -186.797    -127.217    -117.595
  O     -185.900    -126.129    -117.682
  H     -187.482    -127.037    -116.759
  H     -186.257    -128.150    -117.406
  H     -187.384    -127.304    -118.512
  P     -184.736    -126.189    -118.782
  C     -186.573    -126.124    -120.607
  O     -185.404    -126.778    -120.115
  C     -186.972    -126.690    -121.966
  O     -188.243    -126.148    -122.381
  C     -185.992    -126.362    -123.088
  O     -184.833    -127.162    -122.988
  C     -186.866    -126.631    -124.305
  O     -186.965    -128.037    -124.570
  C     -188.229    -126.071    -123.826
  N     -188.487    -124.702    -124.274
  C     -189.592    -124.526    -125.112
  O     -190.281    -125.495    -125.443
  N     -189.878    -123.262    -125.563
  C     -189.156    -122.258    -125.180
  N     -189.493    -121.030    -125.657
  C     -188.001    -122.394    -124.270
  C     -187.718    -123.633    -123.868
  O     -183.471    -126.875    -118.370
  O     -184.480    -124.651    -119.154
  H     -186.071    -128.328    -124.836
  H     -183.751    -124.285    -118.618
  H     -187.435    -121.525    -123.966
  H     -186.888    -123.820    -123.196
  H     -189.050    -126.706    -124.184
  H     -186.477    -126.161    -125.207
  H     -185.740    -125.297    -123.074
  H     -187.098    -127.776    -121.857
  H     -190.307    -120.982    -126.265
  H     -186.330    -125.059    -120.698
  H     -189.111    -120.167    -125.305
  H     -187.399    -126.231    -119.897
  P     -183.653    -127.075    -124.071
  C     -182.310    -125.450    -122.597
  O     -182.962    -125.641    -123.844
  O     -184.061    -127.361    -125.478
  O     -182.548    -128.085    -123.510
  H     -182.808    -129.020    -123.698
  H     -181.891    -124.466    -122.561
  H     -181.530    -126.174    -122.488
  H     -183.018    -125.566    -121.803

 6  7  8  9  10  11  12  13  14  15  16  26  30  31  32  33  35 0
 6-311+G(2d,p)
 ****
 37  38 0
 6-311+G(2d,p)
 ****
 1  2  3  4  5  17  18  19  20  21  22  23  24  25 0
 3-21G
 ****
 27  28  29  34  36  39  40  41  42  43  44  45  46 0
 3-21G
 ****


