%nproc=1
%NoSave
%Mem=1900MB
#P OB98/GEN NMR

erre ene a

0 1
  C       46.963     -32.431      -9.987
  O       47.121     -33.826     -10.183
  P       48.259     -34.305     -11.211
  C       47.022     -33.277     -13.251
  O       47.545     -34.452     -12.640
  C       45.956     -33.620     -14.293
  O       45.535     -32.400     -14.951
  C       46.426     -34.601     -15.368
  O       45.328     -35.456     -15.689
  C       46.719     -33.707     -16.558
  O       46.633     -34.423     -17.789
  C       45.663     -32.606     -16.373
  N       46.027     -31.372     -17.061
  C       45.889     -31.360     -18.452
  O       45.553     -32.384     -19.047
  N       46.185     -30.208     -19.137
  C       46.680     -29.193     -18.501
  N       46.954     -28.074     -19.222
  C       46.957     -29.207     -17.051
  C       46.590     -30.308     -16.398
  O       48.521     -35.820     -10.772
  O       49.506     -33.484     -11.187
  H       46.740     -33.778     -18.524
  H       49.451     -36.071     -10.925
  H       47.404     -28.346     -16.575
  H       46.733     -30.399     -15.330
  H       44.687     -32.940     -16.750
  H       47.729     -33.289     -16.471
  H       47.283     -35.202     -15.050
  H       45.082     -34.023     -13.768
  H       46.770     -28.094     -20.217
  H       47.835     -32.747     -13.756
  H       47.342     -27.235     -18.812
  H       46.612     -32.619     -12.479
  P       45.350     -36.947     -15.099
  C       45.823     -37.661     -17.519
  O       45.052     -37.895     -16.358
  O       43.948     -37.000     -14.320
  O       46.478     -37.340     -14.207
  H       43.864     -37.852     -13.854
  H       45.617     -38.455     -18.242
  H       46.889     -37.669     -17.280
  H       45.544     -36.701     -17.964
  H       46.176     -32.257      -9.283
  H       46.717     -31.966     -10.919
  H       47.876     -32.018      -9.612

 3  4  5  6  7  8  9  10  11  12  13  21  23  27  28  29  30  32 0
 6-311+G(2d,p)
 ****
 34  35 0
 6-311+G(2d,p)
 ****
 1  2  14  15  16  17  18  19  20  22  24  25  26 0
 3-21G
 ****
 31  33  36  37  38  39  40  41  42  43  44  45  46 0
 3-21G
 ****


