%nproc=1
%NoSave
%Mem=1900MB
#P OB98/GEN NMR

erre ene a

0 1
  C      196.758    -475.082     418.755
  O      196.189    -474.284     419.799
  P      195.112    -474.997     420.745
  C      194.254    -474.433     423.135
  O      194.635    -473.942     421.859
  C      194.483    -473.364     424.201
  O      195.888    -473.202     424.505
  C      194.001    -471.976     423.783
  O      192.594    -471.887     423.846
  C      194.742    -471.106     424.788
  O      194.068    -471.113     426.060
  C      196.097    -471.830     424.915
  N      201.139    -470.995     424.562
  C      200.379    -471.611     425.496
  N      199.045    -471.794     425.523
  C      198.479    -471.263     424.425
  C      199.114    -470.605     423.384
  C      200.505    -470.469     423.481
  N      201.268    -469.830     422.535
  N      198.197    -470.200     422.434
  C      197.026    -470.585     422.908
  N      197.140    -471.241     424.104
  O      195.984    -476.052     421.572
  O      193.998    -475.662     419.995
  H      193.108    -471.029     425.884
  H      195.790    -476.960     421.263
  H      200.929    -472.017     426.348
  H      196.068    -470.409     422.426
  H      196.457    -471.856     425.951
  H      194.829    -470.058     424.473
  H      194.348    -471.751     422.761
  H      193.965    -473.675     425.116
  H      194.830    -475.330     423.384
  H      202.257    -469.710     422.715
  H      200.805    -469.363     421.764
  H      193.198    -474.732     423.089
  P      191.807    -471.458     422.514
  C      189.536    -472.137     421.536
  O      190.364    -472.139     422.682
  O      192.506    -472.384     421.411
  O      191.809    -469.995     422.228
  H      192.601    -473.303     421.725
  H      188.602    -472.660     421.777
  H      190.030    -472.658     420.708
  H      189.299    -471.113     421.244
  H      197.458    -474.494     418.198
  H      195.981    -475.424     418.104
  H      197.261    -475.924     419.183

 3  4  5  6  7  8  9  10  11  12  22  25  29  30  31  32 0
 6-311+G(2d,p)
 ****
 33  36  37 0
 6-311+G(2d,p)
 ****
 1  2  13  14  15  16  17  18  19  20  21  23  24  26 0
 3-21G
 ****
 27  28  34  35  38  39  40  41  42  43  44  45  46  47  48 0
 3-21G
 ****


