%nproc=1
%NoSave
%Mem=1900MB
#P OB98/GEN NMR

erre ene a

0 1
  C     -114.688     158.558     114.161
  O     -113.938     158.254     115.320
  H     -115.219     159.498     114.323
  H     -115.420     157.768     113.968
  H     -114.026     158.670     113.298
  P     -113.062     156.911     115.277
  C     -114.099     155.109     116.838
  O     -114.077     155.699     115.544
  C     -114.899     155.991     117.792
  O     -116.103     156.453     117.136
  C     -115.370     155.272     119.047
  O     -114.343     155.136     120.011
  C     -116.507     156.176     119.495
  O     -116.021     157.294     120.247
  C     -117.102     156.649     118.164
  N     -121.686     155.209     119.885
  C     -120.727     155.995     120.422
  N     -119.535     156.340     119.892
  C     -119.391     155.809     118.666
  C     -120.282     154.995     117.990
  C     -121.484     154.695     118.650
  N     -122.451     153.877     118.117
  N     -119.762     154.616     116.769
  C     -118.582     155.197     116.704
  N     -118.316     155.932     117.826
  O     -112.205     156.996     116.626
  O     -112.192     156.760     114.075
  H     -115.332     157.715     119.697
  H     -111.306     157.314     116.421
  H     -120.941     156.388     121.411
  H     -117.886     155.110     115.878
  H     -117.349     157.716     118.175
  H     -117.212     155.633     120.124
  H     -115.785     154.289     118.786
  H     -114.293     156.869     118.049
  H     -113.073     155.013     117.210
  H     -114.547     154.113     116.766
  H     -123.257     153.649     118.675
  H     -122.260     153.395     117.246
  P     -114.367     153.838     120.951
  C     -114.879     154.257     123.473
  O     -115.386     154.137     122.150
  O     -112.931     153.848     121.658
  O     -114.621     152.557     120.230
  H     -112.614     152.933     121.778
  H     -115.686     154.455     124.147
  H     -114.174     155.061     123.513
  H     -114.395     153.345     123.754

 6  7  8  9  10  11  12  13  14  15  25  28  32  33  34  35 0
 6-311+G(2d,p)
 ****
 36  37  40 0
 6-311+G(2d,p)
 ****
 1  2  3  4  5  16  17  18  19  20  21  22  23  24 0
 3-21G
 ****
 26  27  29  30  31  38  39 41  42  43  44  45  46  47  48 0
 3-21G
 ****


