%nproc=1
%NoSave
%Mem=1900MB
#P OB98/GEN NMR

erre ene a

0 1
  C     -309.627    -892.740    -896.530
  O     -310.647    -892.880    -897.550
  P     -310.713    -894.220    -898.430
  C     -313.152    -895.220    -898.320
  O     -311.803    -895.190    -897.800
  C     -314.122    -894.720    -897.280
  O     -313.862    -893.340    -896.910
  C     -315.583    -894.750    -897.680
  O     -316.114    -896.060    -897.650
  C     -316.207    -893.800    -896.670
  O     -316.507    -894.490    -895.420
  C     -315.110    -892.750    -896.480
  N     -315.379    -891.490    -897.160
  C     -316.279    -890.640    -896.540
  O     -316.867    -890.920    -895.480
  N     -316.514    -889.450    -897.170
  C     -316.012    -889.060    -898.360
  O     -316.262    -887.990    -898.910
  C     -315.110    -890.060    -899.030
  C     -314.858    -891.200    -898.420
  O     -309.324    -894.930    -898.040
  O     -310.796    -894.000    -899.910
  H     -315.633    -894.740    -895.040
  H     -309.033    -895.500    -898.780
  H     -317.142    -888.790    -896.720
  H     -314.704    -889.810    -900.000
  H     -314.206    -891.940    -898.880
  H     -314.970    -892.540    -895.410
  H     -317.160    -893.380    -897.020
  H     -315.678    -894.300    -898.690
  H     -313.957    -895.330    -896.330
  H     -313.396    -896.230    -898.610
  H     -313.169    -894.580    -899.210
  P     -316.003    -896.950    -899.030
  C     -315.263    -899.080    -897.690
  O     -314.955    -898.110    -898.660
  O     -315.215    -895.920    -899.950
  O     -317.340    -897.370    -899.520
  H     -314.576    -895.350    -899.440
  H     -316.342    -899.300    -897.670
  H     -314.917    -898.730    -896.690
  H     -314.716    -900.000    -897.930
  H     -309.733    -891.791    -896.047
  H     -308.659    -892.804    -896.982
  H     -309.735    -893.522    -895.808

 3  4  5  6  7  8  9  10  11  12  13  23  28  29  30  31  32 0
 6-311+G(2d,p)
 ****
 33  34 0
 6-311+G(2d,p)
 ****
 1  2  14  15  16  17  18  19  20  21  22  24  25  26 0
 3-21G
 ****
 27  35  36  37  38  39  40  41  42  43  44  45 0
 3-21G
 ****


