%nproc=1
%NoSave
%Mem=1900MB
#P OB98/GEN NMR

erre ene a

0 1
  C       25.725      -1.056    -283.672
  O       26.311       0.178    -283.290
  P       25.580       1.010    -282.126
  C       26.317       2.999    -280.616
  O       26.712       1.878    -281.397
  C       27.518       3.563    -279.857
  O       27.980       2.606    -278.883
  C       28.728       3.874    -280.727
  O       28.539       5.072    -281.463
  C       29.821       3.943    -279.667
  O       29.775       5.212    -278.994
  C       29.406       2.818    -278.705
  N       33.360      -0.126    -277.317
  C       32.947       1.088    -276.893
  N       31.899       1.817    -277.325
  C       31.238       1.167    -278.297
  C       31.553      -0.064    -278.848
  C       32.670      -0.726    -278.315
  N       33.089      -1.964    -278.755
  N       30.659      -0.399    -279.842
  C       29.813       0.608    -279.885
  N       30.111       1.573    -278.962
  O       25.222      -0.112    -281.047
  O       24.371       1.777    -282.564
  H       30.547       5.253    -278.393
  H       24.382       0.096    -280.593
  H       33.538       1.536    -276.096
  H       28.970       0.683    -280.562
  H       29.572       3.079    -277.651
  H       30.831       3.828    -280.080
  H       28.927       3.044    -281.415
  H       27.189       4.465    -279.322
  H       25.554       2.692    -279.893
  H       33.981      -2.298    -278.424
  H       32.661      -2.342    -279.591
  H       25.881       3.757    -281.274
  P       29.547       5.360    -282.677
  C       29.345       6.735    -284.837
  O       28.652       6.182    -283.730
  O       29.649       3.916    -283.359
  O       30.838       5.989    -282.286
  H       28.772       3.518    -283.503
  H       28.616       7.221    -285.496
  H       29.859       5.948    -285.392
  H       30.065       7.484    -284.496
  H       26.308      -1.502    -284.450
  H       24.730      -0.884    -284.026
  H       25.695      -1.713    -282.828

 3  4  5  6  7  8  9  10  11  12  22  25  29  30  31  32 0
 6-311+G(2d,p)
 ****
 33  36  37 0
 6-311+G(2d,p)
 ****
 1  2  13  14  15  16  17  18  19  20  21  23  24  26 0
 3-21G
 ****
 27  28  34  35  38  39  40  41  42  43  44  45  46  47  48 0
 3-21G
 ****


