%nproc=1
%NoSave
%Mem=1900MB
#P OB98/GEN NMR

erre ene a

0 1
  C      936.398     596.356     277.164
  O      935.657     595.137     276.987
  P      934.241     595.216     276.228
  C      934.284     593.065     274.739
  O      933.775     593.710     275.903
  C      934.005     591.575     274.796
  O      934.766     590.907     275.825
  C      932.541     591.238     275.075
  O      931.746     591.279     273.895
  C      932.666     589.790     275.556
  O      932.792     588.909     274.412
  C      933.962     589.830     276.354
  N      932.397     587.639     280.644
  C      932.478     587.119     279.354
  N      932.100     585.832     279.193
  N      932.905     587.804     278.327
  C      933.271     589.073     278.650
  C      933.230     589.695     279.880
  C      932.735     588.921     281.008
  O      932.626     589.341     282.162
  N      933.676     590.980     279.801
  C      933.995     591.154     278.530
  N      933.758     590.021     277.783
  O      934.657     595.775     274.793
  O      933.236     596.083     276.897
  H      932.015     589.057     273.858
  H      933.910     596.274     274.397
  H      932.060     587.072     281.400
  H      934.416     592.069     278.097
  H      934.562     588.899     276.240
  H      931.785     589.458     276.112
  H      931.804     585.219     279.955
  H      932.135     591.856     275.882
  H      932.189     585.430     278.266
  H      934.296     591.132     273.825
  H      935.361     593.240     274.662
  H      933.846     593.547     273.850
  P      930.268     591.926     274.013
  C      930.736     593.997     272.518
  O      930.045     592.776     272.662
  O      930.461     593.037     275.145
  O      929.195     590.955     274.361
  H      929.622     593.153     275.652
  H      930.606     594.359     271.485
  H      931.813     593.887     272.703
  H      930.318     594.744     273.203
  H      937.311     596.146     277.681
  H      935.815     597.048     277.735
  H      936.619     596.781     276.207

 3  4  5  6  7  8  9  10  11  12  23  26  30  31 0
 6-311+G(2d,p)
 ****
 33  35  36  37  38 0
 6-311+G(2d,p)
 ****
 1  2  13  14  15  16  17  18  19  20  21  22  24  25 0
 3-21G
 ****
 27  28  29  32  34  39  40  41  42  43  44  45  46  47  48  49 0
 3-21G
 ****


