%nproc=1
%NoSave
%Mem=1900MB
#P OB98/GEN NMR

erre ene a

0 1
  C       23.495     -77.092      50.678
  O       22.371     -76.755      51.489
  P       22.515     -76.848      53.084
  C       23.577     -78.444      54.808
  O       23.221     -78.244      53.444
  C       22.829     -79.643      55.398
  O       21.405     -79.420      55.427
  C       23.023     -80.921      54.599
  O       24.312     -81.467      54.815
  C       21.864     -81.769      55.108
  O       22.199     -82.404      56.353
  C       20.759     -80.711      55.333
  N       19.734     -80.722      54.299
  C       18.994     -81.905      54.182
  O       19.251     -82.871      54.899
  N       17.992     -81.962      53.242
  C       17.759     -80.934      52.484
  N       16.754     -81.047      51.575
  C       18.524     -79.675      52.569
  C       19.492     -79.641      53.483
  O       21.279     -76.540      53.864
  O       23.677     -75.785      53.398
  H       21.587     -83.161      56.443
  H       23.532     -75.411      54.290
  H       18.288     -78.844      51.918
  H       20.106     -78.755      53.610
  H       20.264     -80.878      56.297
  H       21.601     -82.563      54.402
  H       22.883     -80.711      53.529
  H       23.180     -79.792      56.429
  H       16.250     -81.925      51.529
  H       23.344     -77.541      55.382
  H       16.462     -80.289      50.975
  H       24.664     -78.585      54.873
  P       25.378     -81.357      53.621
  C       25.470     -82.107      51.141
  O       24.838     -82.242      52.401
  O       26.623     -82.205      54.173
  O       25.789     -79.960      53.273
  H       27.455     -81.811      53.853
  H       25.209     -82.977      50.528
  H       26.558     -82.062      51.241
  H       25.109     -81.205      50.642
  H       23.237     -76.979      49.646
  H       23.779     -78.106      50.866
  H       24.313     -76.443      50.914

 3  4  5  6  7  8  9  10  11  12  13  23  27  28  29  30  32 0
 6-311+G(2d,p)
 ****
 34  35 0
 6-311+G(2d,p)
 ****
 1  2  14  15  16  17  18  19  20  21  22  24  25  26 0
 3-21G
 ****
 31  33  36  37  38  39  40  41  42  43  44  45  46 0
 3-21G
 ****


