%nproc=1
%NoSave
%Mem=1900MB
#P OB98/GEN NMR

erre ene a

0 1
  C     -556.631      17.894     332.522
  O     -558.049      18.020     332.709
  P     -558.944      16.808     332.160
  C     -558.135      17.207     329.725
  O     -558.287      16.276     330.791
  C     -557.818      16.519     328.400
  O     -558.996      15.831     327.873
  C     -557.333      17.473     327.302
  O     -556.372      16.760     326.512
  C     -558.577      17.697     326.470
  O     -558.267      18.189     325.167
  C     -559.179      16.285     326.506
  N     -562.432      14.722     322.961
  C     -561.039      14.701     322.982
  N     -560.447      14.139     321.919
  N     -560.314      15.192     323.956
  C     -561.065      15.691     324.977
  C     -562.426      15.761     325.091
  C     -563.226      15.246     323.991
  O     -564.451      15.237     323.927
  N     -562.814      16.326     326.283
  C     -561.666      16.651     326.873
  N     -560.580      16.239     326.135
  O     -560.298      17.525     331.691
  O     -559.211      15.745     333.185
  H     -557.750      19.014     325.274
  H     -560.985      17.412     332.371
  H     -562.924      14.349     322.183
  H     -561.566      17.141     327.813
  H     -558.644      15.588     325.835
  H     -559.244      18.421     326.968
  H     -560.944      13.687     321.158
  H     -556.891      18.407     327.675
  H     -559.429      14.055     321.920
  H     -557.052      15.751     328.593
  H     -557.331      17.916     329.967
  H     -559.055      17.810     329.651
  P     -554.937      16.432     327.171
  C     -553.555      18.397     326.164
  O     -554.172      17.830     327.314
  O     -554.153      15.712     325.977
  O     -554.993      15.580     328.389
  H     -553.610      14.985     326.337
  H     -553.510      19.483     326.307
  H     -554.135      18.171     325.259
  H     -552.549      18.003     326.072
  H     -556.140      18.755     332.925
  H     -556.415      17.816     331.477
  H     -556.281      17.017     333.025

 3  4  5  6  7  8  9  10  11  12  23  26  30  31 0
 6-311+G(2d,p)
 ****
 33  35  36  37  38 0
 6-311+G(2d,p)
 ****
 1  2  13  14  15  16  17  18  19  20  21  22  24  25 0
 3-21G
 ****
 27  28  29  32  34  39  40  41  42  43  44  45  46  47  48  49 0
 3-21G
 ****


