%nproc=1
%NoSave
%Mem=1900MB
#P OB98/GEN NMR

erre ene a

0 1
  C       67.563    -766.713     217.115
  O       68.743    -767.242     217.692
  H       67.512    -765.643     217.338
  H       66.675    -767.194     217.537
  H       67.577    -766.847     216.032
  P       68.968    -768.828     217.638
  C       70.949    -768.567     215.997
  O       69.658    -769.117     216.222
  C       71.986    -769.684     215.910
  O       71.529    -770.719     215.017
  C       73.326    -769.216     215.359
  O       74.050    -768.495     216.332
  C       73.935    -770.539     214.929
  O       74.494    -771.240     216.045
  C       72.696    -771.281     214.372
  N       72.590    -771.187     212.918
  C       73.026    -772.302     212.199
  O       73.467    -773.294     212.785
  N       72.974    -772.259     210.825
  C       72.512    -771.204     210.229
  N       72.486    -771.224     208.871
  C       72.029    -770.016     210.954
  C       72.098    -770.071     212.281
  O       67.777    -769.688     217.934
  O       70.159    -769.075     218.679
  H       74.669    -772.148     215.731
  H       69.804    -769.232     219.574
  H       71.645    -769.159     210.414
  H       71.761    -769.239     212.887
  H       72.730    -772.342     214.647
  H       74.727    -770.396     214.198
  H       73.172    -768.607     214.459
  H       72.104    -770.126     216.907
  H       72.839    -772.059     208.415
  H       71.175    -767.906     216.844
  H       72.073    -770.500     208.306
  H       70.963    -767.969     215.079
  P       74.787    -767.123     215.950
  C       73.972    -765.879     218.060
  O       73.908    -765.967     216.638
  O       75.073    -766.932     214.500
  O       76.104    -767.156     216.860
  H       76.772    -767.792     216.509
  H       73.349    -765.077     218.396
  H       74.982    -765.696     218.361
  H       73.633    -766.798     218.490

 6  7  8  9  10  11  12  13  14  15  16  26  30  31  32  33  35 0
 6-311+G(2d,p)
 ****
 37  38 0
 6-311+G(2d,p)
 ****
 1  2  3  4  5  17  18  19  20  21  22  23  24  25 0
 3-21G
 ****
 27  28  29  34  36  39  40  41  42  43  44  45  46 0
 3-21G
 ****


