%nproc=1
%NoSave
%Mem=1900MB
#P OB98/GEN NMR

erre ene a

0 1
  C      843.849    -473.967     278.916
  O      843.512    -473.192     280.052
  H      843.061    -473.849     278.167
  H      843.920    -475.024     279.191
  H      844.796    -473.628     278.492
  P      844.557    -473.217     281.269
  C      844.305    -470.711     281.943
  O      844.080    -472.068     282.287
  C      843.244    -469.810     282.588
  O      841.979    -469.996     281.869
  C      842.963    -470.134     284.064
  O      842.533    -468.929     284.712
  C      841.791    -471.099     283.953
  O      841.158    -471.277     285.203
  C      841.000    -470.405     282.850
  N      836.611    -472.938     283.560
  C      837.320    -472.128     284.371
  N      838.477    -471.477     284.106
  C      838.876    -471.717     282.847
  C      838.254    -472.515     281.898
  C      837.062    -473.154     282.292
  N      836.351    -473.984     281.480
  N      838.978    -472.517     280.712
  C      840.012    -471.740     280.943
  N      839.998    -471.236     282.222
  O      845.897    -472.626     280.619
  O      844.781    -474.551     281.892
  H      840.942    -470.411     285.603
  H      846.468    -473.354     280.319
  H      836.904    -471.982     285.368
  H      840.798    -471.500     280.235
  H      840.500    -469.499     283.202
  H      842.125    -472.086     283.627
  H      843.829    -470.543     284.590
  H      843.529    -468.762     282.450
  H      844.268    -470.611     280.858
  H      845.303    -470.405     282.299
  H      835.513    -474.419     281.847
  H      836.683    -474.168     280.537
  P      843.608    -468.025     285.488
  C      841.492    -466.611     286.089
  O      842.828    -466.960     286.400
  O      844.175    -467.097     284.310
  O      844.722    -468.775     286.153
  H      845.098    -466.833     284.511
  H      841.136    -465.894     286.799
  H      840.877    -467.486     286.127
  H      841.453    -466.190     285.106

 6  7  8  9  10  11  12  13  14  15  25  28  32  33  34  35 0
 6-311+G(2d,p)
 ****
 36  37  40 0
 6-311+G(2d,p)
 ****
 1  2  3  4  5  16  17  18  19  20  21  22  23  24 0
 3-21G
 ****
 26  27  29  30  31  38  39 41  42  43  44  45  46  47  48 0
 3-21G
 ****


