%nproc=1
%NoSave
%Mem=1900MB
#P OB98/GEN NMR

erre ene a

0 1
  C     -444.107    -260.135    -178.175
  O     -444.616    -260.416    -179.480
  P     -446.009    -259.813    -180.009
  C     -444.821    -258.231    -181.654
  O     -445.745    -258.335    -180.574
  C     -444.606    -256.765    -182.086
  O     -444.163    -255.967    -180.946
  C     -443.548    -256.570    -183.171
  O     -444.093    -256.872    -184.442
  C     -443.192    -255.090    -182.960
  O     -444.159    -254.239    -183.589
  C     -443.249    -254.961    -181.429
  N     -438.937    -252.484    -180.248
  C     -440.064    -252.083    -180.872
  N     -441.177    -252.815    -181.156
  C     -441.043    -254.073    -180.698
  C     -439.955    -254.624    -180.051
  C     -438.854    -253.780    -179.827
  N     -437.703    -254.197    -179.203
  N     -440.194    -255.963    -179.759
  C     -441.407    -256.185    -180.204
  N     -441.965    -255.077    -180.784
  O     -447.129    -259.895    -179.018
  O     -446.349    -260.662    -181.323
  H     -444.005    -253.342    -183.258
  H     -447.313    -260.687    -181.456
  H     -440.082    -251.046    -181.183
  H     -441.918    -257.147    -180.134
  H     -443.677    -253.985    -181.140
  H     -442.215    -254.840    -183.373
  H     -442.672    -257.192    -182.952
  H     -445.570    -256.358    -182.398
  H     -445.224    -258.790    -182.512
  H     -436.943    -253.545    -179.106
  H     -437.606    -255.169    -178.930
  H     -443.873    -258.675    -181.352
  P     -443.796    -258.304    -185.117
  C     -446.243    -259.037    -185.415
  O     -445.037    -259.265    -184.731
  O     -442.443    -258.885    -184.840
  O     -444.020    -258.052    -186.664
  H     -443.444    -258.659    -187.176
  H     -446.762    -258.180    -184.984
  H     -446.871    -259.922    -185.340
  H     -446.053    -258.825    -186.480
  H     -443.173    -260.639    -178.040
  H     -444.805    -260.475    -177.439
  H     -443.962    -259.080    -178.068

 3  4  5  6  7  8  9  10  11  12  22  25  29  30  31  32 0
 6-311+G(2d,p)
 ****
 33  36  37 0
 6-311+G(2d,p)
 ****
 1  2  13  14  15  16  17  18  19  20  21  23  24  26 0
 3-21G
 ****
 27  28  34  35  38  39  40  41  42  43  44  45  46  47  48 0
 3-21G
 ****


