%nproc=1
%NoSave
%Mem=1900MB
#P OB98/GEN NMR

erre ene a

0 1
  C       26.970     -66.708    -101.449
  O       26.445     -65.796    -100.469
  P       24.882     -65.859    -100.100
  C       24.213     -63.531     -99.112
  O       24.606     -64.872     -98.866
  C       23.982     -62.797     -97.788
  O       22.917     -63.427     -97.039
  C       25.181     -62.798     -96.852
  O       26.170     -61.866     -97.255
  C       24.525     -62.449     -95.522
  O       24.341     -61.028     -95.397
  C       23.166     -63.166     -95.640
  N       23.106     -64.392     -94.850
  C       22.253     -64.378     -93.751
  O       21.617     -63.385     -93.403
  N       22.181     -65.544     -93.038
  C       22.913     -66.674     -93.270
  O       22.817     -67.682     -92.583
  C       23.856     -66.600     -94.394
  C       23.913     -65.479     -95.117
  O       24.763     -67.299     -99.403
  O       23.938     -65.749    -101.251
  H       23.937     -60.875     -94.520
  H       23.860     -67.648     -99.528
  H       21.546     -65.566     -92.256
  H       24.472     -67.466     -94.598
  H       24.604     -65.410     -95.951
  H       22.358     -62.500     -95.312
  H       25.123     -62.771     -94.663
  H       25.604     -63.808     -96.788
  H       23.673     -61.768     -98.017
  H       23.284     -63.527     -99.690
  H       24.992     -63.032     -99.697
  P       27.699     -62.267     -96.967
  C       28.890     -59.961     -96.652
  O       28.567     -61.034     -97.509
  O       27.915     -63.433     -98.043
  O       27.941     -62.672     -95.552
  H       27.405     -63.280     -98.857
  H       29.027     -60.297     -95.621
  H       28.090     -59.216     -96.688
  H       29.819     -59.501     -96.999
  H       28.018     -66.533    -101.574
  H       26.469     -66.556    -102.382
  H       26.814     -67.714    -101.120

 3  4  5  6  7  8  9  10  11  12  13  23  28  29  30  31  32 0
 6-311+G(2d,p)
 ****
 33  34 0
 6-311+G(2d,p)
 ****
 1  2  14  15  16  17  18  19  20  21  22  24  25  26 0
 3-21G
 ****
 27  35  36  37  38  39  40  41  42  43  44  45 0
 3-21G
 ****


