%nproc=1
%NoSave
%Mem=1900MB
#P OB98/GEN NMR

erre ene a

0 1
  C       93.268      84.048     -64.344
  O       93.344      82.957     -63.451
  P       93.687      83.164     -61.898
  C       92.488      84.418     -60.001
  O       92.733      84.356     -61.397
  C       92.626      85.848     -59.474
  O       94.031      86.223     -59.451
  C       91.878      86.908     -60.295
  O       91.436      87.899     -59.364
  C       92.973      87.463     -61.185
  O       92.648      88.737     -61.725
  C       94.168      87.434     -60.224
  N       95.441      87.495     -60.932
  C       95.775      88.717     -61.521
  O       94.977      89.657     -61.496
  N       96.978      88.833     -62.171
  C       97.732      87.787     -62.311
  N       98.914      87.962     -62.960
  C       97.358      86.449     -61.814
  C       96.220      86.379     -61.129
  O       95.134      83.343     -61.586
  O       93.037      81.882     -61.195
  H       93.371      89.010     -62.331
  H       93.607      81.086     -61.334
  H       97.992      85.596     -62.004
  H       95.863      85.441     -60.725
  H       94.121      88.278     -59.523
  H       93.147      86.779     -62.026
  H       91.036      86.506     -60.864
  H       92.271      85.861     -58.436
  H       99.137      88.900     -63.271
  H       93.226      83.786     -59.498
  H       99.609      87.237     -63.049
  H       91.495      84.016     -59.777
  P       90.240      88.904     -59.723
  C       87.723      88.712     -60.140
  O       88.942      88.009     -59.994
  O       90.550      89.901     -60.791
  O       89.900      89.629     -58.332
  H       89.365      90.427     -58.505
  H       86.980      88.048     -60.591
  H       87.850      89.590     -60.780
  H       87.364      89.031     -59.157
  H       93.029      83.691     -65.324
  H       94.210      84.555     -64.369
  H       92.507      84.725     -64.016

 3  4  5  6  7  8  9  10  11  12  13  23  27  28  29  30  32 0
 6-311+G(2d,p)
 ****
 34  35 0
 6-311+G(2d,p)
 ****
 1  2  14  15  16  17  18  19  20  21  22  24  25  26 0
 3-21G
 ****
 31  33  36  37  38  39  40  41  42  43  44  45  46 0
 3-21G
 ****


