%nproc=1
%NoSave
%Mem=1900MB
#P OB98/GEN NMR

erre ene a

0 1
  C       29.960     311.418     -16.240
  O       29.874     311.267     -14.836
  H       30.444     312.373     -16.461
  H       28.960     311.419     -16.681
  H       30.559     310.609     -16.671
  P       29.165     309.927     -14.304
  C       27.963     311.131     -12.343
  O       27.826     310.400     -13.554
  C       26.860     312.178     -12.223
  O       26.926     313.119     -13.319
  C       25.446     311.605     -12.225
  O       25.076     311.148     -10.935
  C       24.638     312.815     -12.673
  O       24.387     313.720     -11.577
  C       25.571     313.460     -13.710
  N       22.116     313.249     -17.388
  C       22.047     313.818     -16.132
  N       20.862     314.368     -15.785
  N       23.044     313.839     -15.287
  C       24.155     313.223     -15.758
  C       24.352     312.636     -16.990
  C       23.247     312.649     -17.926
  O       23.266     312.221     -19.076
  N       25.624     312.135     -17.101
  C       26.181     312.381     -15.932
  N       25.323     313.026     -15.076
  O       30.112     309.458     -13.100
  O       28.991     308.849     -15.320
  H       23.802     313.285     -10.932
  H       30.084     308.484     -13.034
  H       21.318     313.281     -17.998
  H       27.191     312.115     -15.656
  H       25.495     314.554     -13.709
  H       23.662     312.526     -13.067
  H       19.999     314.094     -16.236
  H       25.351     310.807     -12.972
  H       20.797     314.767     -14.858
  H       27.044     312.745     -11.299
  H       28.938     311.632     -12.340
  H       27.917     310.438     -11.496
  P       24.950     309.562     -10.715
  C       22.425     309.734     -11.322
  O       23.670     309.090     -11.559
  O       24.455     309.438      -9.197
  O       26.209     308.796     -10.964
  H       24.606     308.529      -8.870
  H       21.677     309.309     -11.958
  H       22.519     310.779     -11.530
  H       22.142     309.598     -10.299

 6  7  8  9  10  11  12  13  14  15  26  29  33  34 0
 6-311+G(2d,p)
 ****
 36  38  39  40  41 0
 6-311+G(2d,p)
 ****
 1  2  3  4  5  16  17  18  19  20  21  22  23  24  25 0
 3-21G
 ****
 27  28  30  31  32  35  37  42  43  44  45  46  47 0
 3-21G
 ****
 48  49 0
 3-21G
 ****


