%nproc=1
%NoSave
%Mem=1900MB
#P OB98/GEN NMR

erre ene a

0 1
  C      -96.758     -85.027    -180.621
  O      -97.493     -86.210    -180.392
  H      -97.418     -84.170    -180.469
  H      -96.388     -85.009    -181.648
  H      -95.922     -84.957    -179.921
  P      -96.706     -87.603    -180.535
  C      -97.137     -87.798    -183.095
  O      -96.181     -87.626    -182.057
  C      -96.434     -87.954    -184.447
  O      -95.571     -89.115    -184.401
  C      -97.404     -88.138    -185.615
  O      -96.964     -87.350    -186.722
  C      -97.318     -89.618    -185.939
  O      -97.650     -89.894    -187.299
  C      -95.879     -89.952    -185.532
  N      -95.722     -91.367    -185.204
  C      -95.241     -92.199    -186.218
  O      -94.983     -91.734    -187.330
  N      -95.113     -93.541    -185.970
  C      -95.492     -94.024    -184.828
  N      -95.361     -95.365    -184.650
  C      -96.050     -93.191    -183.745
  C      -96.131     -91.885    -183.996
  O      -97.884     -88.683    -180.526
  O      -95.650     -87.845    -179.510
  H      -96.972     -89.467    -187.868
  H      -97.534     -89.597    -180.394
  H      -96.367     -93.640    -182.816
  H      -96.531     -91.197    -183.260
  H      -95.179     -89.699    -186.340
  H      -98.023     -90.170    -185.306
  H      -98.426     -87.854    -185.367
  H      -95.784     -87.086    -184.601
  H      -94.985     -95.906    -185.419
  H      -97.793     -86.922    -183.121
  H      -95.652     -95.852    -183.814
  H      -97.736     -88.690    -182.888
  P      -98.116     -86.609    -187.559
  C      -99.026     -88.547    -189.019
  O      -99.243     -87.701    -187.901
  O      -97.423     -86.315    -188.970
  O      -98.625     -85.367    -186.904
  H      -97.115     -85.391    -189.013
  H      -99.853     -89.218    -189.124
  H      -98.127     -89.109    -188.872
  H      -98.934     -87.952    -189.904

 6  7  8  9  10  11  12  13  14  15  16  26  30  31  32  33  35 0
 6-311+G(2d,p)
 ****
 37  38 0
 6-311+G(2d,p)
 ****
 1  2  3  4  5  17  18  19  20  21  22  23  24  25 0
 3-21G
 ****
 27  28  29  34  36  39  40  41  42  43  44  45  46 0
 3-21G
 ****


