%nproc=1
%NoSave
%Mem=1900MB
#P OB98/GEN NMR

erre ene a

0 1
  C      -12.405     431.412    -103.099
  O      -11.143     432.015    -103.296
  H      -13.158     431.992    -103.637
  H      -12.661     431.396    -102.036
  H      -12.395     430.390    -103.500
  P       -9.896     431.328    -102.557
  C      -10.284     432.730    -100.426
  O      -10.258     431.427    -100.993
  C      -11.036     432.722     -99.095
  O      -10.451     431.710     -98.242
  C      -10.971     434.060     -98.348
  O      -12.225     434.309     -97.720
  C       -9.904     433.825     -97.291
  O      -10.067     434.671     -96.158
  C      -10.090     432.334     -96.996
  N       -7.704     430.879     -92.724
  C       -8.962     431.318     -92.952
  N       -9.520     431.673     -94.135
  C       -8.654     431.489     -95.143
  C       -7.337     431.058     -95.064
  C       -6.865     430.749     -93.778
  N       -5.575     430.325     -93.534
  N       -6.761     431.039     -96.319
  C       -7.710     431.443     -97.139
  N       -8.866     431.743     -96.477
  O       -8.553     431.854    -102.936
  O      -10.143     429.782    -102.873
  H       -9.570     434.283     -95.407
  H      -11.080     429.538    -102.757
  H       -9.600     431.407     -92.076
  H       -7.606     431.550     -98.214
  H      -10.879     432.140     -96.264
  H       -8.914     434.016     -97.723
  H      -10.714     434.893     -99.006
  H      -12.078     432.421     -99.282
  H      -10.764     433.432    -101.118
  H       -5.320     430.114     -92.576
  H       -4.937     430.206     -94.302
  H       -9.246     433.054    -100.275
  P      -13.033     435.633     -98.123
  C      -12.252     437.018     -96.081
  O      -12.273     436.904     -97.504
  O      -14.511     435.598     -97.889
  O      -12.709     435.773     -99.693
  H      -13.504     436.097    -100.151
  H      -11.718     437.902     -95.802
  H      -11.767     436.161     -95.662
  H      -13.255     437.076     -95.713

 6  7  8  9  10  11  12  13  14  15  25  28  32  33  34  35 0
 6-311+G(2d,p)
 ****
 36  39  40 0
 6-311+G(2d,p)
 ****
 1  2  3  4  5  16  17  18  19  20  21  22  23  24 0
 3-21G
 ****
 26  27  29  30  31  37  38  41  42  43  44  45  46  47 0
 3-21G
 ****
 48 0
 3-21G
 ****


