%nproc=1
%NoSave
%Mem=1900MB
#P OB98/GEN NMR

erre ene a

0 1
  C      171.165     -62.688     328.819
  O      171.489     -61.440     328.245
  P      171.535     -60.076     329.077
  C      174.032     -60.271     329.768
  O      172.677     -60.213     330.201
  C      174.964     -59.372     330.594
  O      174.544     -57.998     330.467
  C      174.851     -59.722     332.081
  O      175.597     -60.797     332.619
  C      175.017     -58.398     332.814
  O      176.346     -58.201     333.301
  C      174.678     -57.356     331.745
  N      172.364     -54.079     334.844
  C      173.710     -54.380     334.743
  N      174.501     -53.882     335.718
  N      174.216     -55.118     333.789
  C      173.288     -55.621     332.945
  C      171.932     -55.383     332.935
  C      171.390     -54.535     333.969
  O      170.194     -54.313     334.143
  N      171.291     -56.123     331.975
  C      172.250     -56.841     331.428
  N      173.472     -56.600     332.009
  O      170.220     -59.478     329.461
  O      172.225     -59.080     328.011
  H      176.395     -57.311     333.689
  H      171.838     -58.194     328.146
  H      172.020     -53.569     335.648
  H      172.108     -57.567     330.636
  H      175.493     -56.629     331.643
  H      174.359     -58.356     333.690
  H      174.125     -53.436     336.542
  H      173.807     -60.011     332.259
  H      175.455     -54.219     335.771
  H      175.987     -59.407     330.211
  H      174.053     -59.981     328.713
  H      174.389     -61.303     329.825
  P      175.371     -61.492     334.041
  C      173.209     -62.664     333.341
  O      173.803     -61.744     334.237
  O      175.682     -60.333     335.102
  O      176.237     -62.682     334.303
  H      175.913     -60.729     335.962
  H      172.124     -62.532     333.360
  H      173.445     -63.687     333.654
  H      173.569     -62.507     332.320
  H      171.201     -63.447     328.066
  H      170.180     -62.644     329.235
  H      171.869     -62.919     329.591

 3  4  5  6  7  8  9  10  11  12  23  26  30  31 0
 6-311+G(2d,p)
 ****
 33  35  36  37  38 0
 6-311+G(2d,p)
 ****
 1  2  13  14  15  16  17  18  19  20  21  22  24  25 0
 3-21G
 ****
 27  28  29  32  34  39  40  41  42  43  44  45  46  47  48  49 0
 3-21G
 ****


