%nproc=1
%NoSave
%Mem=1900MB
#P OB98/GEN NMR

erre ene a

0 1
  C       96.656      -3.192    -610.697
  O       97.741      -2.287    -610.792
  P       99.099      -2.708    -611.540
  C      101.372      -3.619    -610.822
  O      100.003      -3.517    -610.489
  C      102.158      -4.345    -609.721
  O      102.274      -3.471    -608.557
  C      101.515      -5.663    -609.245
  O      102.590      -6.541    -608.907
  C      100.788      -5.232    -607.977
  O      100.511      -6.321    -607.100
  C      101.773      -4.211    -607.419
  N      100.460      -3.499    -602.526
  C      101.008      -4.552    -603.166
  N      101.305      -4.678    -604.489
  C      100.977      -3.567    -605.141
  C      100.380      -2.418    -604.639
  C      100.133      -2.400    -603.247
  N       99.595      -1.322    -602.577
  N      100.144      -1.504    -605.657
  C      100.593      -2.090    -606.738
  N      101.165      -3.298    -606.486
  O       99.801      -1.589    -612.244
  O       98.630      -3.839    -612.580
  H      101.355      -6.726    -606.823
  H       98.624      -3.484    -613.488
  H      101.246      -5.413    -602.540
  H      100.527      -1.678    -607.751
  H      102.638      -4.689    -606.931
  H       99.834      -4.759    -608.233
  H      100.851      -6.120    -609.976
  H      103.173      -4.526    -610.087
  H      101.766      -2.595    -610.923
  H       99.578      -1.369    -601.581
  H       99.594      -0.409    -603.036
  H      101.493      -4.138    -611.780
  P      102.379      -8.137    -608.995
  C      102.189     -10.066    -607.326
  O      102.414      -8.675    -607.497
  O      103.270      -8.848    -609.950
  O      100.832      -8.283    -609.396
  H      100.670      -9.181    -609.744
  H      101.123     -10.269    -607.376
  H      102.581     -10.386    -606.354
  H      102.695     -10.652    -608.116
  H       95.850      -2.729    -610.167
  H       96.969      -4.071    -610.173
  H       96.328      -3.461    -611.680

 3  4  5  6  7  8  9  10  11  12  22  25  29  30  31  32 0
 6-311+G(2d,p)
 ****
 33  36  37 0
 6-311+G(2d,p)
 ****
 1  2  13  14  15  16  17  18  19  20  21  23  24  26 0
 3-21G
 ****
 27  28  34  35  38  39  40  41  42  43  44  45  46  47  48 0
 3-21G
 ****


