%nproc=1
%NoSave
%Mem=1900MB
#P OB98/GEN NMR

erre ene a

0 1
  C      -55.783     -58.032     -41.921
  O      -55.801     -59.315     -41.316
  P      -56.587     -60.539     -41.993
  C      -58.864     -61.164     -40.974
  O      -58.139     -60.217     -41.751
  C      -58.305     -61.214     -39.555
  O      -58.054     -59.858     -39.115
  C      -59.229     -61.813     -38.495
  O      -59.188     -63.231     -38.410
  C      -58.630     -61.217     -37.228
  O      -57.448     -61.951     -36.856
  C      -58.256     -59.803     -37.680
  N      -59.504     -55.818     -34.725
  C      -58.378     -56.560     -34.815
  N      -58.129     -57.619     -35.615
  C      -59.181     -57.863     -36.413
  C      -60.392     -57.191     -36.442
  C      -60.537     -56.118     -35.545
  N      -61.678     -55.350     -35.473
  N      -61.235     -57.747     -37.385
  C      -60.537     -58.725     -37.922
  N      -59.288     -58.830     -37.375
  O      -56.127     -61.886     -41.556
  O      -56.411     -60.300     -43.563
  H      -57.664     -62.899     -36.942
  H      -56.622     -61.120     -44.051
  H      -57.567     -56.269     -34.151
  H      -60.895     -59.381     -38.702
  H      -57.318     -59.452     -37.234
  H      -59.311     -61.260     -36.374
  H      -60.258     -61.452     -38.611
  H      -57.345     -61.744     -39.579
  H      -58.751     -62.150     -41.440
  H      -61.645     -54.525     -34.895
  H      -62.380     -55.471     -36.190
  H      -59.925     -60.903     -40.973
  P      -60.498     -63.968     -37.836
  C      -60.342     -64.903     -35.397
  O      -60.436     -63.780     -36.245
  O      -60.679     -65.367     -38.309
  O      -61.681     -62.983     -38.278
  H      -61.683     -62.116     -37.842
  H      -60.150     -64.559     -34.377
  H      -59.522     -65.557     -35.703
  H      -61.283     -65.461     -35.407
  H      -55.209     -57.361     -41.317
  H      -56.784     -57.665     -42.009
  H      -55.342     -58.102     -42.893

 3  4  5  6  7  8  9  10  11  12  22  25  29  30  31  32 0
 6-311+G(2d,p)
 ****
 33  36  37 0
 6-311+G(2d,p)
 ****
 1  2  13  14  15  16  17  18  19  20  21  23  24  26 0
 3-21G
 ****
 27  28  34  35  38  39  40  41  42  43  44  45  46  47  48 0
 3-21G
 ****


