%nproc=1
%NoSave
%Mem=1900MB
#P OB98/GEN NMR

erre ene a

0 1
  C       21.583    -103.907    -120.971
  O       20.256    -104.021    -120.504
  H       22.050    -103.037    -120.500
  H       21.589    -103.765    -122.054
  H       22.156    -104.801    -120.709
  P       19.386    -105.241    -121.080
  C       18.853    -104.127    -123.361
  O       19.530    -105.175    -122.681
  C       18.573    -104.526    -124.812
  O       19.835    -104.838    -125.467
  C       17.662    -105.756    -124.953
  O       16.798    -105.562    -126.079
  C       18.641    -106.873    -125.269
  O       18.017    -107.961    -125.942
  C       19.670    -106.118    -126.105
  N       21.953    -110.063    -128.245
  C       20.669    -109.574    -128.402
  N       19.865    -110.240    -129.259
  N       20.213    -108.525    -127.771
  C       21.134    -107.942    -126.965
  C       22.427    -108.332    -126.714
  C       22.914    -109.509    -127.402
  O       24.032    -110.004    -127.287
  N       23.027    -107.497    -125.803
  C       22.097    -106.605    -125.507
  N       20.934    -106.831    -126.190
  O       17.875    -104.777    -120.827
  O       19.674    -106.576    -120.479
  H       18.724    -108.569    -126.250
  H       17.294    -105.548    -120.683
  H       22.250    -110.881    -128.747
  H       22.215    -105.783    -124.811
  H       19.330    -105.950    -127.135
  H       19.091    -107.253    -124.344
  H       20.157    -111.036    -129.805
  H       17.065    -105.962    -124.061
  H       18.923    -109.891    -129.401
  H       18.151    -103.661    -125.337
  H       19.479    -103.228    -123.345
  H       17.909    -103.916    -122.848
  P       15.576    -104.537    -125.909
  C       13.518    -106.118    -125.990
  O       14.359    -105.301    -125.190
  O       15.058    -104.346    -127.413
  O       15.962    -103.230    -125.300
  H       15.298    -103.457    -127.733
  H       12.759    -106.557    -125.377
  H       14.101    -106.891    -126.446
  H       13.060    -105.521    -126.751

 6  7  8  9  10  11  12  13  14  15  26  29  33  34 0
 6-311+G(2d,p)
 ****
 36  38  39  40  41 0
 6-311+G(2d,p)
 ****
 1  2  3  4  5  16  17  18  19  20  21  22  23  24  25 0
 3-21G
 ****
 27  28  30  31  32  35  37  42  43  44  45  46  47 0
 3-21G
 ****
 48  49 0
 3-21G
 ****


