%nproc=1
%NoSave
%Mem=1900MB
#P OB98/GEN NMR

erre ene a

0 1
  C      -46.535    -536.756     318.880
  O      -46.668    -537.786     319.833
  H      -47.415    -536.772     318.232
  H      -45.651    -536.922     318.259
  H      -46.476    -535.782     319.372
  P      -45.490    -538.035     320.898
  C      -46.436    -540.415     321.098
  O      -45.985    -539.264     321.807
  C      -47.540    -541.144     321.872
  O      -47.017    -541.582     323.156
  C      -48.775    -540.275     322.147
  O      -49.963    -541.005     321.824
  C      -48.720    -540.037     323.651
  O      -49.995    -539.753     324.216
  C      -48.056    -541.333     324.126
  N      -47.534    -541.223     325.479
  C      -48.360    -541.721     326.502
  O      -49.448    -542.218     326.226
  N      -47.958    -541.580     327.802
  C      -46.840    -540.963     328.070
  N      -46.512    -540.843     329.381
  C      -45.967    -540.400     327.025
  C      -46.360    -540.566     325.768
  O      -45.069    -536.814     321.649
  O      -44.296    -538.685     320.045
  H      -49.894    -539.691     325.192
  H      -43.448    -538.538     320.526
  H      -45.048    -539.888     327.299
  H      -45.774    -540.189     324.929
  H      -48.762    -542.172     324.086
  H      -48.059    -539.186     323.852
  H      -48.777    -539.339     321.587
  H      -47.809    -542.054     321.315
  H      -47.150    -541.233     330.057
  H      -45.577    -541.076     320.932
  H      -45.686    -540.358     329.712
  H      -46.833    -540.080     320.131
  P      -51.005    -540.272     320.847
  C      -52.859    -541.219     322.405
  O      -52.450    -540.935     321.074
  O      -50.567    -540.778     319.396
  O      -50.959    -538.787     320.947
  H      -50.165    -540.044     318.888
  H      -53.836    -541.655     322.393
  H      -52.880    -540.312     322.973
  H      -52.169    -541.904     322.852

 6  7  8  9  10  11  12  13  14  15  16  26  30  31  32  33  35 0
 6-311+G(2d,p)
 ****
 37  38 0
 6-311+G(2d,p)
 ****
 1  2  3  4  5  17  18  19  20  21  22  23  24  25 0
 3-21G
 ****
 27  28  29  34  36  39  40  41  42  43  44  45  46 0
 3-21G
 ****


