%nproc=1
%NoSave
%Mem=1900MB
#P OB98/GEN NMR

erre ene a

0 1
  C      -79.944     -67.831     -21.588
  O      -80.553     -69.091     -21.358
  P      -79.688     -70.443     -21.365
  C      -80.024     -72.006     -23.377
  O      -79.464     -70.783     -22.915
  C      -81.546     -71.902     -23.423
  O      -81.899     -70.621     -23.996
  C      -82.261     -72.939     -24.288
  O      -82.505     -74.180     -23.643
  C      -83.587     -72.234     -24.538
  O      -84.434     -72.366     -23.383
  C      -83.151     -70.776     -24.711
  N      -84.135     -67.256     -28.290
  C      -84.436     -67.317     -26.975
  N      -84.155     -68.299     -26.091
  C      -83.450     -69.277     -26.683
  C      -83.063     -69.352     -28.010
  C      -83.434     -68.277     -28.836
  N      -83.105     -68.208     -30.172
  N      -82.368     -70.523     -28.249
  C      -82.327     -71.130     -27.083
  N      -82.959     -70.414     -26.103
  O      -80.251     -71.541     -20.533
  O      -78.234     -69.982     -20.885
  H      -85.220     -71.809     -23.540
  H      -77.714     -70.760     -20.604
  H      -84.982     -66.465     -26.576
  H      -81.856     -72.085     -26.901
  H      -83.864     -70.068     -24.274
  H      -84.138     -72.650     -25.386
  H      -81.745     -73.085     -25.245
  H      -81.925     -71.928     -22.393
  H      -79.738     -72.801     -22.678
  H      -83.299     -67.344     -30.652
  H      -82.449     -68.886     -30.536
  H      -79.615     -72.250     -24.361
  P      -82.636     -75.481     -24.581
  C      -85.149     -76.033     -25.055
  O      -84.001     -75.288     -25.398
  O      -82.495     -76.777     -23.865
  O      -81.505     -75.234     -25.688
  H      -81.669     -74.488     -26.287
  H      -86.003     -75.642     -25.616
  H      -85.367     -75.947     -23.988
  H      -85.008     -77.085     -25.320
  H      -80.687     -67.062     -21.542
  H      -79.486     -67.827     -22.555
  H      -79.200     -67.653     -20.840

 3  4  5  6  7  8  9  10  11  12  22  25  29  30  31  32 0
 6-311+G(2d,p)
 ****
 33  36  37 0
 6-311+G(2d,p)
 ****
 1  2  13  14  15  16  17  18  19  20  21  23  24  26 0
 3-21G
 ****
 27  28  34  35  38  39  40  41  42  43  44  45  46  47  48 0
 3-21G
 ****


