%nproc=1
%NoSave
%Mem=1900MB
#P OB98/GEN NMR

erre ene a

0 1
  C       74.861     -36.697    -159.692
  O       75.470     -37.989    -159.682
  P       74.470     -39.245    -159.709
  C       74.887     -39.626    -162.242
  O       74.892     -40.187    -160.937
  C       75.197     -40.695    -163.291
  O       74.954     -40.234    -164.633
  C       76.645     -41.163    -163.266
  O       76.836     -42.095    -162.216
  C       76.795     -41.781    -164.650
  O       76.316     -43.141    -164.672
  C       75.901     -40.883    -165.520
  N       75.471     -37.470    -169.241
  C       74.569     -38.420    -168.803
  N       73.373     -38.447    -169.428
  N       74.817     -39.264    -167.836
  C       76.052     -39.121    -167.300
  C       77.021     -38.202    -167.631
  C       76.735     -37.275    -168.704
  O       77.491     -36.402    -169.114
  N       78.124     -38.323    -166.823
  C       77.868     -39.396    -166.096
  N       76.598     -39.878    -166.301
  O       73.082     -38.599    -160.174
  O       74.343     -39.932    -158.391
  H       76.359     -43.478    -165.585
  H       72.451     -38.600    -159.430
  H       75.230     -36.851    -169.996
  H       78.552     -39.844    -165.391
  H       75.316     -41.473    -166.236
  H       77.840     -41.819    -164.967
  H       73.114     -37.825    -170.178
  H       77.318     -40.303    -163.163
  H       72.695     -39.131    -169.115
  H       74.529     -41.546    -163.100
  H       75.621     -38.822    -162.306
  H       73.907     -39.172    -162.425
  P       78.311     -42.246    -161.608
  C       78.203     -40.327    -159.865
  O       78.265     -41.721    -160.098
  O       79.141     -41.117    -162.385
  O       78.926     -43.592    -161.801
  H       80.000     -41.480    -162.668
  H       77.672     -40.150    -158.927
  H       77.684     -39.804    -160.672
  H       79.220     -39.933    -159.775
  H       75.621     -35.944    -159.672
  H       74.233     -36.592    -158.832
  H       74.273     -36.587    -160.579

 3  4  5  6  7  8  9  10  11  12  23  26  30  31 0
 6-311+G(2d,p)
 ****
 33  35  36  37  38 0
 6-311+G(2d,p)
 ****
 1  2  13  14  15  16  17  18  19  20  21  22  24  25 0
 3-21G
 ****
 27  28  29  32  34  39  40  41  42  43  44  45  46  47  48  49 0
 3-21G
 ****


