%nproc=1
%NoSave
%Mem=1900MB
#P OB98/GEN NMR

erre ene a

0 1
  C      279.457     110.672    -189.755
  O      279.004     111.109    -188.473
  P      278.386     112.590    -188.391
  C      280.546     113.717    -187.498
  O      279.584     113.652    -188.540
  C      280.783     115.157    -187.025
  O      281.580     115.895    -187.994
  C      279.494     115.947    -186.801
  O      279.724     116.847    -185.713
  C      279.361     116.754    -188.079
  O      278.513     117.886    -187.890
  C      280.835     117.077    -188.365
  N      281.083     117.452    -189.756
  C      280.759     118.758    -190.132
  O      280.222     119.521    -189.322
  N      281.008     119.164    -191.418
  C      281.490     118.315    -192.276
  N      281.715     118.775    -193.539
  C      281.793     116.910    -191.943
  C      281.570     116.555    -190.678
  O      277.946     112.726    -186.857
  O      277.229     112.810    -189.310
  H      278.486     118.392    -188.733
  H      277.031     113.053    -186.800
  H      282.174     116.233    -192.697
  H      281.763     115.545    -190.338
  H      281.182     117.900    -187.731
  H      278.938     116.132    -188.881
  H      278.626     115.315    -186.584
  H      281.361     115.118    -186.093
  H      281.501     119.748    -193.725
  H      281.494     113.291    -187.840
  H      282.082     118.206    -194.285
  H      280.214     113.080    -186.667
  P      278.966     116.578    -184.327
  C      276.790     117.270    -185.505
  O      277.444     116.272    -184.745
  O      278.839     118.063    -183.732
  O      279.592     115.648    -183.340
  H      278.448     118.029    -182.839
  H      275.818     116.883    -185.824
  H      277.379     117.519    -186.395
  H      276.629     118.161    -184.895
  H      279.843     109.677    -189.677
  H      280.228     111.328    -190.104
  H      278.639     110.684    -190.445

 3  4  5  6  7  8  9  10  11  12  13  21  23  27  28  29  30  32 0
 6-311+G(2d,p)
 ****
 34  35 0
 6-311+G(2d,p)
 ****
 1  2  14  15  16  17  18  19  20  22  24  25  26 0
 3-21G
 ****
 31  33  36  37  38  39  40  41  42  43  44  45  46 0
 3-21G
 ****


