%nproc=1
%NoSave
%Mem=1900MB
#P OB98/GEN NMR

erre ene a

0 1
  C      103.242    -116.051     207.938
  O      104.118    -115.469     208.914
  P      105.319    -114.539     208.399
  C      105.758    -112.734     210.218
  O      106.127    -113.989     209.671
  C      106.239    -112.619     211.674
  O      105.612    -113.610     212.517
  C      107.733    -112.835     211.834
  O      108.475    -111.652     211.545
  C      107.820    -113.157     213.328
  O      107.771    -111.934     214.090
  C      106.540    -113.974     213.556
  N      106.635    -118.344     216.249
  C      106.406    -117.066     216.619
  N      106.425    -115.960     215.849
  C      106.681    -116.272     214.566
  C      106.929    -117.528     214.038
  C      106.895    -118.607     214.946
  N      107.121    -119.911     214.564
  N      107.158    -117.456     212.679
  C      107.048    -116.171     212.393
  N      106.769    -115.419     213.495
  O      104.557    -113.237     207.856
  O      106.156    -115.170     207.328
  H      108.580    -111.427     213.851
  H      105.034    -112.872     207.081
  H      106.199    -116.902     217.670
  H      107.153    -115.755     211.396
  H      106.080    -113.757     214.523
  H      108.753    -113.655     213.596
  H      108.075    -113.703     211.250
  H      105.962    -111.616     212.045
  H      104.672    -112.598     210.178
  H      107.051    -120.637     215.264
  H      107.296    -120.106     213.587
  H      106.188    -111.931     209.601
  P      108.485    -111.149     210.030
  C      109.954    -109.100     210.647
  O      109.809    -110.274     209.858
  O      107.296    -110.082     209.987
  O      108.282    -112.242     209.025
  H      106.893    -110.062     209.096
  H      111.005    -108.801     210.642
  H      109.622    -109.261     211.674
  H      109.352    -108.293     210.189
  H      102.498    -116.640     208.433
  H      103.808    -116.674     207.277
  H      102.767    -115.274     207.377

 3  4  5  6  7  8  9  10  11  12  22  25  29  30  31  32 0
 6-311+G(2d,p)
 ****
 33  36  37 0
 6-311+G(2d,p)
 ****
 1  2  13  14  15  16  17  18  19  20  21  23  24  26 0
 3-21G
 ****
 27  28  34  35  38  39  40  41  42  43  44  45  46  47  48 0
 3-21G
 ****


