%nproc=1
%NoSave
%Mem=1900MB
#P OB98/GEN NMR

erre ene a

0 1
  C       74.705     -39.647     -46.957
  O       73.545     -39.417     -46.176
  P       73.111     -37.890     -45.926
  C       74.362     -38.032     -43.654
  O       74.144     -37.296     -44.851
  C       75.469     -37.403     -42.807
  O       76.594     -37.090     -43.663
  C       75.051     -36.121     -42.086
  O       75.691     -36.108     -40.810
  C       75.646     -35.022     -42.946
  O       75.857     -33.825     -42.200
  C       76.926     -35.702     -43.457
  N       77.428     -35.085     -44.680
  C       78.234     -33.953     -44.532
  O       78.426     -33.476     -43.414
  N       78.758     -33.362     -45.654
  C       78.417     -33.797     -46.827
  N       78.964     -33.180     -47.908
  C       77.470     -34.911     -47.030
  C       77.037     -35.516     -45.925
  O       71.754     -38.036     -45.093
  O       72.929     -37.084     -47.170
  H       76.377     -33.205     -42.760
  H       71.143     -37.302     -45.292
  H       77.191     -35.211     -48.029
  H       76.358     -36.357     -45.977
  H       77.716     -35.659     -42.696
  H       74.972     -34.795     -43.781
  H       73.968     -36.038     -41.958
  H       75.811     -38.151     -42.082
  H       79.599     -32.410     -47.743
  H       74.668     -39.050     -43.913
  H       78.756     -33.450     -48.860
  H       73.427     -38.090     -43.089
  P       74.772     -35.856     -39.520
  C       75.795     -33.502     -39.481
  O       74.605     -34.263     -39.435
  O       75.812     -36.132     -38.329
  O       73.537     -36.676     -39.358
  H       75.353     -36.072     -37.472
  H       75.531     -32.444     -39.553
  H       76.392     -33.777     -40.354
  H       76.373     -33.658     -38.566
  H       74.875     -40.700     -47.042
  H       75.549     -39.186     -46.487
  H       74.567     -39.228     -47.932

 3  4  5  6  7  8  9  10  11  12  13  21  23  27  28  29  30  32 0
 6-311+G(2d,p)
 ****
 34  35 0
 6-311+G(2d,p)
 ****
 1  2  14  15  16  17  18  19  20  22  24  25  26 0
 3-21G
 ****
 31  33  36  37  38  39  40  41  42  43  44  45  46 0
 3-21G
 ****


