%nproc=1
%NoSave
%Mem=1900MB
#P OB98/GEN NMR

erre ene a

0 1
  C      -11.515     -18.322     -24.728
  O      -10.541     -17.514     -24.089
  P      -10.721     -17.219     -22.520
  C      -11.658     -14.805     -22.803
  O      -11.900     -16.139     -22.388
  C      -12.828     -13.900     -22.410
  O      -13.959     -14.211     -23.264
  C      -13.300     -14.054     -20.960
  O      -13.773     -12.770     -20.536
  C      -14.470     -15.012     -21.080
  O      -15.359     -14.938     -19.971
  C      -15.068     -14.563     -22.409
  N      -19.739     -16.063     -23.632
  C      -19.325     -14.964     -22.901
  N      -20.294     -14.118     -22.492
  N      -18.077     -14.717     -22.602
  C      -17.221     -15.644     -23.094
  C      -17.510     -16.790     -23.795
  C      -18.889     -17.031     -24.152
  O      -19.291     -17.943     -24.870
  N      -16.383     -17.526     -24.043
  C      -15.404     -16.785     -23.564
  N      -15.858     -15.613     -23.020
  O       -9.404     -16.389     -22.161
  O      -10.896     -18.424     -21.651
  H      -16.166     -15.442     -20.199
  H       -8.699     -16.975     -21.823
  H      -20.713     -16.190     -23.848
  H      -14.357     -17.040     -23.587
  H      -15.712     -13.681     -22.303
  H      -14.098     -16.042     -21.144
  H      -21.272     -14.230     -22.713
  H      -12.523     -14.417     -20.282
  H      -20.015     -13.288     -21.983
  H      -12.542     -12.861     -22.611
  H      -11.555     -14.787     -23.892
  H      -10.723     -14.446     -22.361
  P      -13.584     -12.372     -18.995
  C      -16.134     -11.958     -18.822
  O      -14.992     -12.578     -18.266
  O      -13.431     -10.777     -19.056
  O      -12.400     -12.993     -18.328
  H      -12.841     -10.478     -18.340
  H      -17.025     -12.491     -18.482
  H      -16.110     -11.975     -19.916
  H      -16.189     -10.922     -18.478
  H      -11.265     -18.430     -25.763
  H      -12.476     -17.860     -24.640
  H      -11.539     -19.286     -24.264

 3  4  5  6  7  8  9  10  11  12  23  26  30  31 0
 6-311+G(2d,p)
 ****
 33  35  36  37  38 0
 6-311+G(2d,p)
 ****
 1  2  13  14  15  16  17  18  19  20  21  22  24  25 0
 3-21G
 ****
 27  28  29  32  34  39  40  41  42  43  44  45  46  47  48  49 0
 3-21G
 ****


