%nproc=1
%NoSave
%Mem=1900MB
#P OB98/GEN NMR

erre ene a

0 1
  C      448.315     632.429    -789.491
  O      447.384     632.703    -790.535
  P      445.822     632.702    -790.157
  C      443.698     633.808    -791.158
  O      445.125     633.721    -791.169
  C      443.171     634.157    -792.558
  O      443.715     635.422    -792.998
  C      443.561     633.157    -793.640
  O      442.698     632.018    -793.653
  C      443.345     633.986    -794.886
  O      441.955     634.044    -795.222
  C      443.845     635.374    -794.432
  N      446.909     637.686    -797.821
  C      445.560     637.545    -797.779
  N      444.821     636.897    -796.855
  C      445.609     636.337    -795.913
  C      446.995     636.375    -795.859
  C      447.658     637.095    -796.868
  N      449.019     637.265    -796.895
  N      447.456     635.683    -794.750
  C      446.363     635.256    -794.143
  N      445.222     635.628    -794.803
  O      445.786     633.481    -788.753
  O      445.203     631.344    -790.058
  H      441.496     634.493    -794.474
  H      444.992     633.235    -788.257
  H      445.006     638.001    -798.594
  H      446.340     634.674    -793.224
  H      443.239     636.188    -794.852
  H      443.864     633.580    -795.768
  H      444.615     632.870    -793.563
  H      442.079     634.250    -792.490
  H      443.390     634.596    -790.463
  H      449.397     637.942    -797.536
  H      449.554     637.005    -796.078
  H      443.289     632.852    -790.824
  P      443.185     630.757    -794.510
  C      442.746     628.199    -794.269
  O      442.778     629.466    -793.642
  O      444.782     630.816    -794.385
  O      442.724     630.769    -795.942
  H      445.201     630.371    -795.149
  H      442.763     627.426    -793.508
  H      443.635     628.063    -794.916
  H      441.843     628.091    -794.875
  H      449.310     632.462    -789.883
  H      448.123     631.457    -789.088
  H      448.211     633.162    -788.719

 3  4  5  6  7  8  9  10  11  12  22  25  29  30  31  32 0
 6-311+G(2d,p)
 ****
 33  36  37 0
 6-311+G(2d,p)
 ****
 1  2  13  14  15  16  17  18  19  20  21  23  24  26 0
 3-21G
 ****
 27  28  34  35  38  39  40  41  42  43  44  45  46  47  48 0
 3-21G
 ****


