%nproc=1
%NoSave
%Mem=1900MB
#P OB98/GEN NMR

erre ene a

0 1
  C      192.225     493.894    -352.193
  O      190.845     493.788    -351.917
  H      192.707     494.424    -351.363
  H      192.394     494.459    -353.105
  H      192.675     492.895    -352.278
  P      189.864     493.220    -353.056
  C      189.686     490.981    -351.823
  O      190.073     491.627    -353.020
  C      189.625     489.474    -351.968
  O      188.542     489.113    -352.870
  C      190.922     488.855    -352.535
  O      191.280     487.705    -351.760
  C      190.535     488.424    -353.953
  O      191.363     487.378    -354.442
  C      189.044     488.085    -353.742
  N      188.296     488.051    -354.999
  C      188.005     486.765    -355.517
  O      188.400     485.744    -354.923
  N      187.314     486.673    -356.690
  C      186.993     487.747    -357.336
  N      186.313     487.583    -358.510
  C      187.319     489.106    -356.865
  C      187.960     489.175    -355.697
  O      190.037     493.854    -354.402
  O      188.389     493.402    -352.450
  H      190.930     486.992    -355.234
  H      187.728     493.388    -353.176
  H      187.038     489.964    -357.454
  H      188.246     490.134    -355.273
  H      188.934     487.111    -353.255
  H      190.626     489.295    -354.625
  H      191.760     489.552    -352.547
  H      189.369     489.023    -351.000
  H      186.099     486.630    -358.795
  H      188.701     491.372    -351.514
  H      186.006     488.345    -359.081
  H      190.431     491.231    -351.036
  P      192.658     487.813    -350.944
  C      191.298     487.319    -348.789
  O      192.310     488.117    -349.399
  O      193.277     489.201    -351.468
  O      193.592     486.668    -351.177
  H      193.972     489.021    -352.134
  H      191.168     487.624    -347.772
  H      191.589     486.290    -348.819
  H      190.377     487.445    -349.319

 6  7  8  9  10  11  12  13  14  15  16  26  30  31  32  33  35 0
 6-311+G(2d,p)
 ****
 37  38 0
 6-311+G(2d,p)
 ****
 1  2  3  4  5  17  18  19  20  21  22  23  24  25 0
 3-21G
 ****
 27  28  29  34  36  39  40  41  42  43  44  45  46 0
 3-21G
 ****


