%nproc=1
%NoSave
%Mem=1900MB
#P OB98/GEN NMR

erre ene a

0 1
  C      109.270     -77.483    -447.100
  O      109.529     -76.114    -447.430
  P      111.064     -75.642    -447.357
  C      112.689     -74.838    -445.500
  O      111.445     -75.469    -445.801
  C      113.222     -75.293    -444.131
  O      112.254     -75.021    -443.078
  C      113.553     -76.787    -444.064
  O      114.687     -76.931    -443.196
  C      112.329     -77.371    -443.374
  O      112.600     -78.661    -442.827
  C      112.052     -76.268    -442.360
  N      108.980     -78.919    -439.352
  C      110.253     -79.210    -439.797
  N      110.812     -80.349    -439.335
  N      110.923     -78.441    -440.625
  C      110.258     -77.315    -440.969
  C      108.997     -76.906    -440.583
  C      108.253     -77.782    -439.697
  O      107.129     -77.571    -439.268
  N      108.674     -75.689    -441.124
  C      109.713     -75.392    -441.889
  N      110.718     -76.323    -441.789
  O      111.007     -74.136    -447.902
  O      111.990     -76.496    -448.155
  H      111.762     -79.015    -442.466
  H      111.296     -74.111    -448.836
  H      108.504     -79.548    -438.729
  H      109.797     -74.521    -442.513
  H      112.751     -76.290    -441.512
  H      111.503     -77.470    -444.089
  H      110.372     -80.951    -438.659
  H      113.753     -77.255    -445.036
  H      111.766     -80.564    -439.612
  H      114.122     -74.708    -443.906
  H      112.556     -73.755    -445.491
  H      113.404     -75.053    -446.298
  P      116.022     -77.560    -443.814
  C      117.086     -79.919    -443.936
  O      115.941     -79.146    -443.638
  O      117.154     -77.131    -442.757
  O      116.371     -77.069    -445.187
  H      117.973     -76.891    -443.232
  H      117.051     -80.846    -443.350
  H      118.009     -79.386    -443.696
  H      117.081     -80.176    -445.000
  H      108.221     -77.678    -447.184
  H      109.589     -77.675    -446.097
  H      109.806     -78.120    -447.773

 3  4  5  6  7  8  9  10  11  12  23  26  30  31 0
 6-311+G(2d,p)
 ****
 33  35  36  37  38 0
 6-311+G(2d,p)
 ****
 1  2  13  14  15  16  17  18  19  20  21  22  24  25 0
 3-21G
 ****
 27  28  29  32  34  39  40  41  42  43  44  45  46  47  48  49 0
 3-21G
 ****


