%nproc=1
%NoSave
%Mem=1900MB
#P OB98/GEN NMR

erre ene a

0 1
  C      293.412    -169.208    -107.945
  O      292.404    -168.698    -108.795
  H      294.101    -169.811    -108.542
  H      292.976    -169.843    -107.167
  H      293.971    -168.388    -107.483
  P      291.217    -167.840    -108.146
  C      289.035    -168.404    -106.871
  O      290.290    -168.880    -107.352
  C      288.509    -169.314    -105.759
  O      289.242    -169.089    -104.538
  C      287.040    -169.080    -105.409
  O      286.196    -169.636    -106.400
  C      286.971    -169.745    -104.044
  O      286.893    -171.173    -104.170
  C      288.331    -169.325    -103.435
  N      288.246    -168.150    -102.573
  C      288.728    -168.309    -101.266
  O      289.174    -169.398    -100.899
  N      288.671    -167.234    -100.413
  C      288.218    -166.094    -100.834
  N      288.191    -165.062     -99.938
  C      287.734    -165.873    -102.211
  C      287.766    -166.935    -103.015
  O      290.472    -166.931    -109.073
  O      291.932    -167.019    -106.967
  H      285.948    -171.382    -104.306
  H      292.201    -166.137    -107.278
  H      287.374    -164.903    -102.523
  H      287.431    -166.863    -104.046
  H      288.759    -170.151    -102.848
  H      286.100    -169.426    -103.471
  H      286.843    -168.008    -105.283
  H      288.681    -170.354    -106.062
  H      288.553    -165.260     -99.010
  H      288.342    -168.406    -107.717
  H      288.016    -164.104    -100.197
  H      289.129    -167.375    -106.502
  P      284.760    -169.008    -106.728
  C      282.520    -168.804    -105.476
  O      283.858    -169.278    -105.424
  O      284.151    -169.451    -108.017
  O      285.009    -167.429    -106.651
  H      285.464    -167.111    -107.473
  H      282.022    -169.040    -104.559
  H      282.007    -169.272    -106.291
  H      282.523    -167.743    -105.618

 6  7  8  9  10  11  12  13  14  15  16  26  30  31  32  33  35 0
 6-311+G(2d,p)
 ****
 37  38 0
 6-311+G(2d,p)
 ****
 1  2  3  4  5  17  18  19  20  21  22  23  24  25 0
 3-21G
 ****
 27  28  29  34  36  39  40  41  42  43  44  45  46 0
 3-21G
 ****


