%nproc=1
%NoSave
%Mem=1900MB
#P OB98/GEN NMR

erre ene a

0 1
  C     -229.298    -145.631    -342.805
  O     -229.588    -144.236    -342.941
  P     -230.326    -143.536    -341.695
  C     -232.771    -142.898    -341.089
  O     -231.914    -143.682    -341.921
  C     -234.005    -143.707    -340.650
  O     -234.984    -143.789    -341.728
  C     -233.689    -145.140    -340.211
  O     -234.596    -145.473    -339.152
  C     -234.050    -145.951    -341.448
  O     -234.236    -147.335    -341.133
  C     -235.298    -145.202    -341.896
  N     -239.126    -146.505    -344.923
  C     -239.075    -146.418    -343.554
  N     -240.231    -146.650    -342.879
  N     -237.990    -146.103    -342.884
  C     -236.928    -145.850    -343.685
  C     -236.853    -145.894    -345.068
  C     -238.055    -146.273    -345.785
  O     -238.157    -146.370    -347.002
  N     -235.603    -145.555    -345.515
  C     -234.904    -145.360    -344.418
  N     -235.672    -145.482    -343.271
  O     -230.050    -141.978    -341.938
  O     -229.821    -144.001    -340.368
  H     -234.936    -147.392    -340.452
  H     -229.317    -141.674    -341.363
  H     -239.983    -146.756    -345.384
  H     -233.857    -145.117    -344.366
  H     -236.170    -145.430    -341.286
  H     -233.247    -145.884    -342.190
  H     -241.105    -146.842    -343.336
  H     -232.649    -145.298    -339.885
  H     -240.233    -146.549    -341.871
  H     -234.485    -143.162    -339.818
  H     -233.094    -142.013    -341.636
  H     -232.191    -142.548    -340.223
  P     -234.051    -145.410    -337.644
  C     -232.797    -147.059    -336.100
  O     -233.677    -146.886    -337.199
  O     -235.379    -145.082    -336.793
  O     -233.001    -144.359    -337.407
  H     -235.159    -144.455    -336.079
  H     -233.002    -148.033    -335.627
  H     -232.931    -146.273    -335.353
  H     -231.768    -147.057    -336.450
  H     -228.810    -145.982    -343.690
  H     -230.210    -146.172    -342.661
  H     -228.657    -145.781    -341.961

 3  4  5  6  7  8  9  10  11  12  23  26  30  31 0
 6-311+G(2d,p)
 ****
 33  35  36  37  38 0
 6-311+G(2d,p)
 ****
 1  2  13  14  15  16  17  18  19  20  21  22  24  25 0
 3-21G
 ****
 27  28  29  32  34  39  40  41  42  43  44  45  46  47  48  49 0
 3-21G
 ****


