%nproc=1
%NoSave
%Mem=1900MB
#P OB98/GEN NMR

erre ene a

0 1
  C      694.752    -259.376    -267.401
  O      695.522    -260.445    -267.905
  H      693.828    -259.778    -266.982
  H      694.501    -258.686    -268.210
  H      695.288    -258.838    -266.615
  P      697.057    -260.183    -268.279
  C      698.138    -261.949    -266.739
  O      697.930    -260.566    -266.992
  C      699.220    -262.149    -265.670
  O      698.965    -261.246    -264.566
  C      699.188    -263.572    -265.097
  O      700.464    -263.989    -264.630
  C      698.248    -263.434    -263.911
  O      698.436    -264.450    -262.927
  C      698.583    -262.026    -263.421
  N      696.477    -260.852    -258.930
  C      697.524    -261.710    -259.205
  N      698.087    -262.331    -258.142
  N      697.961    -261.949    -260.413
  C      697.263    -261.316    -261.383
  C      696.193    -260.462    -261.235
  C      695.735    -260.174    -259.891
  O      694.799    -259.443    -259.594
  N      695.739    -260.019    -262.452
  C      696.525    -260.603    -263.331
  N      697.484    -261.384    -262.729
  O      697.170    -258.584    -268.309
  O      697.520    -260.791    -269.568
  H      697.934    -265.234    -263.221
  H      697.933    -258.310    -268.852
  H      696.194    -260.677    -257.979
  H      696.452    -260.488    -264.406
  H      699.436    -262.051    -262.731
  H      697.221    -263.525    -264.276
  H      697.650    -262.323    -257.234
  H      698.814    -264.301    -265.811
  H      698.626    -263.176    -258.345
  H      700.204    -261.885    -266.077
  H      698.446    -262.402    -267.684
  H      697.205    -262.424    -266.437
  P      701.505    -264.595    -265.686
  C      703.002    -262.410    -265.745
  O      702.279    -263.411    -266.429
  O      700.578    -265.221    -266.822
  O      702.447    -265.610    -265.114
  H      700.682    -266.186    -266.860
  H      703.430    -261.732    -266.454
  H      703.781    -262.864    -265.169
  H      702.342    -261.875    -265.094

 6  7  8  9  10  11  12  13  14  15  26  29  33  34 0
 6-311+G(2d,p)
 ****
 36  38  39  40  41 0
 6-311+G(2d,p)
 ****
 1  2  3  4  5  16  17  18  19  20  21  22  23  24  25 0
 3-21G
 ****
 27  28  30  31  32  35  37  42  43  44  45  46  47 0
 3-21G
 ****
 48  49 0
 3-21G
 ****


