%nproc=1
%NoSave
%Mem=1900MB
#P OB98/GEN NMR

erre ene a

0 1
  C     -290.265     100.674      -2.413
  O     -291.159      99.601      -2.194
  H     -290.831     101.539      -2.774
  H     -289.526     100.400      -3.170
  H     -289.759     100.947      -1.483
  P     -290.549      98.263      -1.554
  C     -290.038      98.742       0.958
  O     -290.973      98.272      -0.002
  C     -290.740      98.953       2.304
  O     -291.959      99.713       2.072
  C     -291.133      97.643       2.995
  O     -290.975      97.791       4.410
  C     -292.612      97.502       2.655
  O     -293.332      96.690       3.571
  C     -293.051      98.973       2.664
  N     -294.285      99.193       1.911
  C     -295.429      98.528       2.348
  O     -295.492      97.836       3.369
  N     -296.545      98.687       1.568
  C     -296.621      99.408       0.403
  O     -297.644      99.492      -0.263
  C     -295.374     100.074      -0.011
  C     -294.285      99.935       0.745
  O     -288.975      98.563      -1.502
  O     -290.868      96.995      -2.271
  H     -288.542      98.261      -2.323
  H     -293.235      97.081       4.464
  H     -297.382      98.218       1.874
  H     -295.397     100.645      -0.934
  H     -293.351     100.408       0.456
  H     -293.172      99.329       3.694
  H     -292.726      97.068       1.655
  H     -290.557      96.786       2.646
  H     -290.093      99.562       2.952
  H     -289.619      99.695       0.615
  H     -289.228      98.014       1.065
  P     -290.249      96.596       5.199
  C     -287.797      97.211       5.867
  O     -289.178      97.298       6.173
  O     -289.369      95.936       4.042
  O     -291.212      95.669       5.870
  H     -288.999      96.591       3.419
  H     -287.233      97.729       6.614
  H     -287.615      97.655       4.911
  H     -287.501      96.183       5.845

 6  7  8  9  10  11  12  13  14  15  16  27  31  32  33  34  35 0
 6-311+G(2d,p)
 ****
 36  37 0
 6-311+G(2d,p)
 ****
 1  2  3  4  5  17  18  19  20  21  22  23  24  25 0
 3-21G
 ****
 26  28  29  30  38  39  40  41  42  43  44  45 0
 3-21G
 ****


