%nproc=1
%NoSave
%Mem=1900MB
#P OB98/GEN NMR

erre ene a

0 1
  C       28.290    -566.391     -83.627
  O       28.990    -566.581     -84.841
  H       28.003    -565.343     -83.552
  H       28.933    -566.636     -82.777
  H       27.387    -567.008     -83.599
  P       29.423    -568.066     -85.264
  C       27.415    -568.786     -86.715
  O       28.065    -568.903     -85.453
  C       27.257    -570.167     -87.342
  O       28.550    -570.813     -87.463
  C       26.387    -571.122     -86.537
  O       25.017    -570.804     -86.686
  C       26.807    -572.462     -87.132
  O       26.161    -572.687     -88.392
  C       28.325    -572.238     -87.345
  N       29.135    -572.806     -86.260
  C       29.367    -574.178     -86.325
  O       28.928    -574.893     -87.215
  N       30.087    -574.703     -85.281
  C       30.511    -574.028     -84.175
  O       30.955    -574.580     -83.173
  C       30.300    -572.576     -84.202
  C       29.627    -572.039     -85.218
  O       30.446    -568.715     -84.397
  O       29.947    -567.892     -86.769
  H       30.919    -567.879     -86.767
  H       25.194    -572.658     -88.221
  H       30.219    -575.701     -85.293
  H       30.679    -571.993     -83.369
  H       29.434    -570.971     -85.240
  H       28.654    -572.691     -88.281
  H       26.557    -573.301     -86.487
  H       26.688    -571.101     -85.475
  H       26.854    -570.038     -88.357
  H       28.023    -568.154     -87.361
  H       26.439    -568.315     -86.575
  P       23.969    -571.071     -85.503
  C       23.874    -568.736     -84.444
  O       24.317    -570.076     -84.297
  O       23.816    -572.500     -85.107
  O       22.590    -570.481     -86.063
  H       21.899    -571.174     -85.997
  H       24.161    -568.169     -83.583
  H       22.809    -568.721     -84.541
  H       24.318    -568.307     -85.318

 6  7  8  9  10  11  12  13  14  15  16  27  31  32  33  34  35 0
 6-311+G(2d,p)
 ****
 36  37 0
 6-311+G(2d,p)
 ****
 1  2  3  4  5  17  18  19  20  21  22  23  24  25 0
 3-21G
 ****
 26  28  29  30  38  39  40  41  42  43  44  45 0
 3-21G
 ****


