%nproc=1
%NoSave
%Mem=1900MB
#P OB98/GEN NMR

erre ene a

0 1
  C     -161.230    -545.456     -62.084
  O     -160.414    -544.313     -62.252
  H     -161.847    -545.607     -62.973
  H     -160.587    -546.334     -61.952
  H     -161.869    -545.357     -61.200
  P     -161.130    -542.884     -62.160
  C     -161.897    -542.995     -64.638
  O     -162.289    -542.884     -63.277
  C     -163.128    -542.936     -65.553
  O     -164.247    -542.405     -64.781
  C     -162.949    -542.039     -66.793
  O     -163.606    -542.667     -67.897
  C     -163.706    -540.774     -66.418
  O     -164.169    -540.054     -67.554
  C     -164.831    -541.344     -65.552
  N     -167.993    -537.361     -65.469
  C     -167.824    -538.363     -66.363
  N     -166.991    -539.420     -66.279
  C     -166.334    -539.421     -65.103
  C     -166.405    -538.470     -64.092
  C     -167.277    -537.391     -64.321
  N     -167.402    -536.330     -63.448
  N     -165.536    -538.793     -63.068
  C     -164.935    -539.900     -63.465
  N     -165.384    -540.314     -64.690
  O     -160.019    -541.900     -62.771
  O     -161.553    -542.461     -60.796
  H     -164.661    -540.666     -68.142
  H     -159.413    -541.607     -62.062
  H     -168.430    -538.298     -67.264
  H     -164.157    -540.418     -62.926
  H     -165.653    -541.754     -66.145
  H     -163.052    -540.116     -65.831
  H     -161.902    -541.837     -67.045
  H     -163.392    -543.952     -65.846
  H     -161.394    -543.957     -64.787
  H     -167.965    -535.545     -63.745
  H     -166.799    -536.283     -62.642
  H     -161.204    -542.187     -64.884
  P     -162.770    -543.743     -68.737
  C     -162.532    -542.151     -70.792
  O     -161.872    -542.966     -69.820
  O     -163.889    -544.465     -69.635
  O     -162.019    -544.730     -67.892
  H     -163.657    -545.407     -69.779
  H     -161.804    -541.704     -71.436
  H     -163.088    -541.383     -70.296
  H     -163.198    -542.756     -71.371

 6  7  8  9  10  11  12  13  14  15  25  28  32  33  34  35 0
 6-311+G(2d,p)
 ****
 36  39  40 0
 6-311+G(2d,p)
 ****
 1  2  3  4  5  16  17  18  19  20  21  22  23  24 0
 3-21G
 ****
 26  27  29  30  31  37  38  41  42  43  44  45  46  47 0
 3-21G
 ****
 48 0
 3-21G
 ****


