%nproc=1
%NoSave
%Mem=1900MB
#P OB98/GEN NMR

erre ene a

0 1
  C      -28.647     523.586     487.721
  O      -27.703     524.635     487.799
  P      -26.598     524.567     488.969
  C      -26.595     526.242     490.980
  O      -27.260     525.196     490.283
  C      -27.006     527.584     490.398
  O      -28.456     527.709     490.364
  C      -26.521     528.779     491.219
  O      -25.160     529.060     490.967
  C      -27.468     529.887     490.758
  O      -27.005     530.473     489.526
  C      -28.780     529.105     490.531
  N      -29.746     529.313     491.608
  C      -30.556     530.448     491.489
  O      -30.471     531.240     490.554
  N      -31.455     530.633     492.508
  C      -31.585     529.871     493.611
  O      -32.368     530.121     494.542
  C      -30.655     528.711     493.712
  C      -29.810     528.489     492.719
  O      -25.506     525.652     488.528
  O      -25.984     523.210     489.163
  H      -27.100     529.764     488.837
  H      -24.611     525.352     488.786
  H      -32.065     531.429     492.421
  H      -30.751     528.078     494.589
  H      -29.124     527.643     492.762
  H      -29.252     529.425     489.575
  H      -27.539     530.700     491.491
  H      -26.692     528.602     492.287
  H      -26.629     527.649     489.356
  H      -25.498     526.097     490.873
  H      -26.842     526.175     492.040
  P      -24.331     529.860     492.110
  C      -23.888     532.404     491.640
  O      -24.821     531.388     491.961
  O      -22.861     529.818     491.489
  O      -24.475     529.239     493.468
  H      -22.846     529.829     490.524
  H      -23.119     532.032     490.952
  H      -23.405     532.752     492.552
  H      -24.420     533.230     491.170
  H      -29.312     523.765     486.902
  H      -29.207     523.541     488.632
  H      -28.137     522.658     487.570

 3  4  5  6  7  8  9  10  11  12  13  23  28  29  30  31  32 0
 6-311+G(2d,p)
 ****
 33  34 0
 6-311+G(2d,p)
 ****
 1  2  14  15  16  17  18  19  20  21  22  24  25  26 0
 3-21G
 ****
 27  35  36  37  38  39  40  41  42  43  44  45 0
 3-21G
 ****


