%nproc=1
%NoSave
%Mem=1900MB
#P OB98/GEN NMR

erre ene a

0 1
  C     -213.773     133.261     604.646
  O     -214.196     134.427     603.967
  H     -213.550     133.515     605.683
  H     -212.869     132.860     604.178
  H     -214.563     132.501     604.626
  P     -214.660     134.254     602.444
  C     -214.015     136.595     601.522
  O     -215.066     135.719     601.920
  C     -214.438     138.054     601.694
  O     -215.370     138.406     600.638
  C     -215.137     138.355     603.037
  O     -214.759     139.676     603.443
  C     -216.603     138.381     602.654
  O     -217.403     139.109     603.585
  C     -216.514     139.017     601.268
  N     -220.429     141.401     599.183
  C     -219.327     141.900     599.860
  N     -219.260     143.241     600.003
  N     -218.378     141.145     600.344
  C     -218.559     139.832     600.093
  C     -219.598     139.209     599.446
  C     -220.660     140.053     598.938
  O     -221.668     139.670     598.346
  N     -219.432     137.841     599.431
  C     -218.287     137.648     600.070
  N     -217.724     138.817     600.489
  O     -216.070     133.502     602.587
  O     -213.715     133.501     601.563
  H     -217.394     138.618     604.445
  H     -215.944     132.537     602.522
  H     -221.130     142.032     598.844
  H     -217.843     136.674     600.250
  H     -216.345     140.096     601.312
  H     -217.001     137.357     602.593
  H     -219.931     143.893     599.610
  H     -214.908     137.642     603.832
  H     -218.438     143.633     600.453
  H     -213.550     138.688     601.568
  H     -213.784     136.410     600.466
  H     -213.125     136.385     602.125
  P     -213.972     139.841     604.836
  C     -214.332     142.275     605.717
  O     -213.513     141.383     604.967
  O     -212.582     139.087     604.555
  O     -214.683     139.275     606.015
  H     -212.226     138.740     605.389
  H     -213.895     143.252     605.709
  H     -214.408     141.926     606.726
  H     -215.307     142.317     605.279

 6  7  8  9  10  11  12  13  14  15  26  29  33  34 0
 6-311+G(2d,p)
 ****
 36  38  39  40  41 0
 6-311+G(2d,p)
 ****
 1  2  3  4  5  16  17  18  19  20  21  22  23  24  25 0
 3-21G
 ****
 27  28  30  31  32  35  37  42  43  44  45  46  47 0
 3-21G
 ****
 48  49 0
 3-21G
 ****


