%nproc=1
%NoSave
%Mem=1900MB
#P OB98/GEN NMR

erre ene a

0 1
  C     -127.296     371.599     377.296
  O     -127.989     372.692     376.729
  H     -126.411     371.973     377.812
  H     -126.979     370.893     376.523
  H     -127.929     371.077     378.033
  P     -129.299     372.394     375.861
  C     -130.855     374.057     377.100
  O     -130.188     373.741     375.871
  C     -130.974     375.581     377.256
  O     -129.672     376.100     377.593
  C     -131.443     376.263     375.945
  O     -132.583     377.103     376.124
  C     -130.157     376.911     375.419
  O     -130.368     378.040     374.600
  C     -129.358     377.173     376.695
  N     -127.911     377.274     376.485
  C     -127.318     378.501     376.706
  O     -127.893     379.525     377.092
  N     -125.954     378.562     376.467
  C     -125.163     377.517     376.051
  O     -123.966     377.621     375.859
  C     -125.874     376.243     375.814
  C     -127.186     376.185     376.038
  O     -130.059     371.155     376.210
  O     -128.765     372.339     374.355
  H     -129.492     378.326     374.263
  H     -128.697     371.412     374.056
  H     -125.512     379.442     376.629
  H     -125.290     375.411     375.460
  H     -127.741     375.254     375.875
  H     -129.689     378.123     377.158
  H     -129.625     376.158     374.809
  H     -131.788     375.519     375.227
  H     -131.660     375.793     378.084
  H     -130.251     373.641     377.925
  H     -131.849     373.593     377.115
  P     -133.443     377.728     374.939
  C     -135.791     376.828     375.706
  O     -134.942     377.945     375.475
  O     -133.276     377.080     373.623
  O     -132.866     379.228     374.829
  H     -132.930     379.482     373.875
  H     -136.742     377.170     376.058
  H     -135.347     376.189     376.441
  H     -135.922     376.285     374.793

 6  7  8  9  10  11  12  13  14  15  16  26  31  32  33  34  35 0
 6-311+G(2d,p)
 ****
 36  37 0
 6-311+G(2d,p)
 ****
 1  2  3  4  5  17  18  19  20  21  22  23  24  25 0
 3-21G
 ****
 27  28  29  30  38  39  40  41  42  43  44  45 0
 3-21G
 ****


