%nproc=1
%NoSave
%Mem=1900MB
#P OB98/GEN NMR

erre ene a

0 1
  C     -236.640       2.439    -151.978
  O     -237.419       2.985    -150.911
  P     -238.938       2.469    -150.807
  C     -240.082       4.616    -151.723
  O     -239.798       3.243    -151.922
  C     -240.624       5.251    -153.004
  O     -241.840       4.624    -153.454
  C     -240.949       6.736    -152.847
  O     -239.764       7.503    -152.935
  C     -241.898       6.968    -154.018
  O     -241.179       7.213    -155.244
  C     -242.656       5.633    -154.102
  N     -247.643       5.909    -155.039
  C     -246.563       6.075    -155.897
  N     -246.859       6.336    -157.187
  N     -245.311       6.004    -155.514
  C     -245.168       5.733    -154.196
  C     -246.155       5.523    -153.257
  C     -247.529       5.612    -153.688
  O     -248.517       5.446    -152.977
  N     -245.619       5.220    -152.031
  C     -244.318       5.384    -152.201
  N     -243.988       5.627    -153.514
  O     -239.443       3.101    -149.423
  O     -239.063       0.982    -150.811
  H     -241.800       7.171    -155.997
  H     -239.558       2.392    -148.760
  H     -248.579       5.982    -155.385
  H     -243.575       5.297    -151.421
  H     -242.794       5.311    -155.148
  H     -242.536       7.839    -153.858
  H     -247.795       6.404    -157.552
  H     -241.470       6.909    -151.901
  H     -246.088       6.455    -157.834
  H     -239.864       5.120    -153.785
  H     -239.177       5.139    -151.405
  H     -240.803       4.711    -150.901
  P     -239.199       8.171    -151.587
  C     -240.221      10.511    -152.070
  O     -240.177       9.389    -151.211
  O     -237.848       8.886    -152.067
  O     -238.935       7.198    -150.485
  H     -237.140       8.715    -151.422
  H     -241.218      10.960    -152.007
  H     -240.022      10.236    -153.111
  H     -239.483      11.246    -151.737
  H     -235.654       2.853    -151.947
  H     -237.099       2.680    -152.914
  H     -236.584       1.376    -151.871

 3  4  5  6  7  8  9  10  11  12  23  26  30  31 0
 6-311+G(2d,p)
 ****
 33  35  36  37  38 0
 6-311+G(2d,p)
 ****
 1  2  13  14  15  16  17  18  19  20  21  22  24  25 0
 3-21G
 ****
 27  28  29  32  34  39  40  41  42  43  44  45  46  47  48  49 0
 3-21G
 ****


