%nproc=1
%NoSave
%Mem=1900MB
#P OB98/GEN NMR

erre ene a

0 1
  C      343.040    -344.079     -86.457
  O      342.172    -344.206     -87.564
  H      343.371    -343.033     -86.394
  H      343.920    -344.714     -86.584
  H      342.525    -344.334     -85.523
  P      341.416    -345.606     -87.792
  C      342.391    -346.881     -89.816
  O      342.494    -346.616     -88.420
  C      343.304    -345.937     -90.592
  O      344.611    -345.881     -89.970
  C      343.551    -346.365     -92.038
  O      342.439    -346.072     -92.852
  C      344.807    -345.568     -92.360
  O      344.482    -344.213     -92.699
  C      345.575    -345.636     -91.020
  N      346.631    -346.653     -91.016
  C      347.809    -346.334     -91.702
  O      347.964    -345.279     -92.310
  N      348.775    -347.297     -91.681
  C      348.662    -348.554     -91.162
  O      349.543    -349.408     -91.250
  C      347.395    -348.842     -90.473
  C      346.446    -347.894     -90.433
  O      340.120    -345.528     -88.527
  O      341.219    -346.174     -86.307
  H      344.103    -344.234     -93.600
  H      340.283    -346.063     -86.038
  H      349.632    -347.089     -92.180
  H      347.262    -349.821     -90.035
  H      345.505    -348.089     -89.937
  H      346.039    -344.663     -90.799
  H      345.355    -345.983     -93.206
  H      343.794    -347.433     -92.072
  H      342.871    -344.928     -90.556
  H      341.352    -346.722     -90.131
  H      342.664    -347.929     -89.999
  P      342.305    -346.751     -94.299
  C      342.103    -345.067     -96.226
  O      342.989    -345.773     -95.364
  O      340.938    -347.232     -94.660
  O      343.333    -347.983     -94.232
  H      342.843    -348.824     -94.367
  H      342.669    -344.448     -96.891
  H      341.448    -344.456     -95.641
  H      341.526    -345.766     -96.794

 6  7  8  9  10  11  12  13  14  15  16  26  31  32  33  34  35 0
 6-311+G(2d,p)
 ****
 36  37 0
 6-311+G(2d,p)
 ****
 1  2  3  4  5  17  18  19  20  21  22  23  24  25 0
 3-21G
 ****
 27  28  29  30  38  39  40  41  42  43  44  45 0
 3-21G
 ****


