%nproc=1
%NoSave
%Mem=1900MB
#P OB98/GEN NMR

erre ene a

0 1
  C      466.307     485.212    1150.263
  O      465.500     484.568    1151.241
  P      465.343     482.976    1151.267
  C      467.386     482.469    1152.750
  O      466.834     482.402    1151.430
  C      467.757     481.062    1153.216
  O      466.527     480.334    1153.501
  C      468.520     480.193    1152.215
  O      469.913     480.401    1152.195
  C      468.220     478.790    1152.750
  O      469.079     478.536    1153.891
  C      466.745     478.922    1153.210
  N      463.990     474.961    1151.539
  C      464.816     475.112    1152.599
  N      465.535     476.191    1152.979
  C      465.296     477.212    1152.128
  C      464.492     477.213    1151.003
  C      463.820     476.013    1150.718
  N      462.965     475.884    1149.642
  N      464.539     478.434    1150.370
  C      465.338     479.178    1151.118
  N      465.811     478.473    1152.197
  O      464.553     482.416    1150.129
  O      464.670     482.657    1152.685
  H      468.908     479.240    1154.539
  H      464.306     481.764    1152.696
  H      464.903     474.245    1153.257
  H      465.609     480.208    1150.920
  H      466.553     478.375    1154.135
  H      468.405     477.996    1152.021
  H      468.085     480.275    1151.199
  H      468.317     481.134    1154.153
  H      466.622     482.882    1153.416
  H      462.429     475.043    1149.574
  H      462.715     476.705    1149.120
  H      468.256     483.118    1152.753
  P      470.740     479.747    1150.981
  C      471.217     481.936    1149.616
  O      470.519     480.720    1149.712
  O      470.444     478.303    1150.728
  O      472.259     480.018    1151.380
  H      472.545     480.963    1151.375
  H      471.041     482.361    1148.629
  H      472.302     481.772    1149.738
  H      470.855     482.634    1150.379
  H      466.279     486.270    1150.418
  H      465.934     484.985    1149.286
  H      467.316     484.866    1150.349

 3  4  5  6  7  8  9  10  11  12  22  25  29  30  31  32 0
 6-311+G(2d,p)
 ****
 33  36  37 0
 6-311+G(2d,p)
 ****
 1  2  13  14  15  16  17  18  19  20  21  23  24  26 0
 3-21G
 ****
 27  28  34  35  38  39  40  41  42  43  44  45  46  47  48 0
 3-21G
 ****


