%nproc=1
%NoSave
%Mem=1900MB
#P OB98/GEN NMR

erre ene a

0 1
  C     -295.851     305.102     194.123
  O     -295.695     306.240     194.946
  H     -296.750     305.197     193.508
  H     -294.980     305.021     193.468
  H     -295.915     304.201     194.739
  P     -296.926     306.594     195.912
  C     -295.949     305.718     198.146
  O     -296.892     305.520     197.104
  C     -296.596     306.469     199.304
  O     -297.816     305.813     199.705
  C     -295.748     306.546     200.568
  O     -294.744     307.547     200.475
  C     -296.810     306.911     201.596
  O     -297.077     308.326     201.534
  C     -298.032     306.123     201.105
  N     -300.113     303.982     205.284
  C     -300.065     305.264     204.857
  N     -299.487     305.762     203.745
  C     -298.923     304.779     203.022
  C     -298.891     303.430     203.329
  C     -299.518     303.036     204.523
  N     -299.547     301.728     204.958
  N     -298.236     302.722     202.345
  C     -297.875     303.625     201.457
  N     -298.263     304.886     201.827
  O     -298.210     306.157     195.057
  O     -297.014     308.022     196.337
  H     -297.626     308.539     202.311
  H     -298.938     306.779     195.239
  H     -300.564     305.991     205.495
  H     -297.342     303.413     200.539
  H     -298.947     306.725     201.161
  H     -296.510     306.680     202.621
  H     -295.322     305.568     200.820
  H     -296.858     307.475     198.951
  H     -295.105     306.303     197.767
  H     -300.171     301.482     205.706
  H     -299.101     301.025     204.377
  H     -295.583     304.742     198.483
  P     -293.242     307.125     200.861
  C     -292.423     306.536     198.471
  O     -292.797     306.051     199.758
  O     -293.444     306.236     202.178
  O     -292.306     308.260     201.097
  H     -292.632     306.257     202.720
  H     -292.152     305.712     197.844
  H     -291.589     307.199     198.568
  H     -293.247     307.061     198.034

 6  7  8  9  10  11  12  13  14  15  25  28  32  33  34  35 0
 6-311+G(2d,p)
 ****
 36  39  40 0
 6-311+G(2d,p)
 ****
 1  2  3  4  5  16  17  18  19  20  21  22  23  24 0
 3-21G
 ****
 26  27  29  30  31  37  38  41  42  43  44  45  46  47  48 0
 3-21G
 ****


