%nproc=1
%NoSave
%Mem=1900MB
#P OB98/GEN NMR

erre ene a

0 1
  C       12.846      -8.188      33.545
  O       13.096      -8.053      34.931
  H       13.087      -7.244      33.052
  H       11.790      -8.416      33.374
  H       13.473      -8.978      33.125
  P       12.824      -9.351      35.836
  C       10.755      -8.078      36.731
  O       11.256      -9.281      36.164
  C        9.229      -8.056      36.678
  O        8.771      -7.985      35.316
  C        8.563      -9.290      37.275
  O        8.499      -9.195      38.689
  C        7.183      -9.201      36.642
  O        6.381      -8.239      37.354
  C        7.497      -8.677      35.228
  N        5.383     -10.513      30.926
  C        4.959      -9.583      31.808
  N        5.551      -9.176      32.950
  C        6.703      -9.837      33.152
  C        7.263     -10.811      32.340
  C        6.556     -11.142      31.172
  N        6.998     -12.085      30.268
  N        8.452     -11.265      32.869
  C        8.634     -10.539      33.954
  N        7.585      -9.686      34.189
  O       13.737      -9.530      36.999
  O       12.892     -10.511      34.733
  H        5.633      -7.996      36.776
  H       12.478     -10.217      33.903
  H        4.018      -9.098      31.562
  H        9.509     -10.581      34.592
  H        6.750      -7.948      34.892
  H        6.647     -10.152      36.678
  H        9.052     -10.210      36.942
  H        8.889      -7.144      37.183
  H       11.158      -7.209      36.201
  H        6.352     -12.382      29.553
  H        7.805     -12.638      30.517
  H       11.097      -8.038      37.770
  P        8.949     -10.427      39.611
  C        6.490     -11.118      39.903
  O        7.789     -11.531      39.496
  O        9.325     -10.066      41.006
  O       10.166     -11.097      38.822
  H       10.851     -11.400      39.448
  H        5.804     -11.930      39.783
  H        6.173     -10.292      39.301
  H        6.516     -10.821      40.931

 6  7  8  9  10  11  12  13  14  15  25  28  32  33  34  35 0
 6-311+G(2d,p)
 ****
 36  39  40 0
 6-311+G(2d,p)
 ****
 1  2  3  4  5  16  17  18  19  20  21  22  23  24 0
 3-21G
 ****
 26  27  29  30  31  37  38  41  42  43  44  45  46  47 0
 3-21G
 ****
 48 0
 3-21G
 ****


