%nproc=1
%NoSave
%Mem=1900MB
#P OB98/GEN NMR

erre ene a

0 1
  C     -467.690    -537.744     513.343
  O     -466.568    -538.152     514.116
  P     -465.262    -537.211     514.098
  C     -464.878    -537.189     516.666
  O     -464.398    -537.602     515.388
  C     -464.432    -538.185     517.741
  O     -465.161    -539.433     517.621
  C     -462.956    -538.583     517.660
  O     -462.111    -537.599     518.268
  C     -462.951    -539.869     518.471
  O     -462.934    -539.555     519.874
  C     -464.304    -540.503     518.079
  N     -463.281    -545.369     517.102
  C     -463.544    -544.748     518.301
  N     -463.455    -545.513     519.422
  N     -463.847    -543.477     518.425
  C     -463.892    -542.825     517.224
  C     -463.655    -543.343     515.968
  C     -463.294    -544.735     515.870
  O     -463.014    -545.339     514.831
  N     -463.804    -542.385     514.995
  C     -464.120    -541.290     515.674
  N     -464.135    -541.513     517.027
  O     -465.840    -535.761     514.459
  O     -464.508    -537.212     512.794
  H     -462.147    -538.988     520.031
  H     -465.185    -535.066     514.205
  H     -463.036    -546.347     517.075
  H     -464.333    -540.322     515.218
  H     -464.787    -540.974     518.930
  H     -462.080    -540.481     518.264
  H     -463.163    -546.479     519.414
  H     -462.649    -538.799     516.632
  H     -463.577    -545.068     520.323
  H     -464.667    -537.754     518.729
  H     -465.970    -537.137     516.648
  H     -464.488    -536.191     516.891
  P     -460.540    -537.700     517.921
  C     -459.936    -535.194     518.252
  O     -459.858    -536.489     518.764
  O     -460.465    -537.199     516.411
  O     -459.949    -539.059     518.115
  H     -459.682    -537.581     515.955
  H     -459.667    -534.480     519.050
  H     -460.947    -534.947     517.895
  H     -459.225    -535.063     517.424
  H     -468.477    -538.461     513.451
  H     -467.408    -537.676     512.313
  H     -468.029    -536.788     513.684

 3  4  5  6  7  8  9  10  11  12  23  26  30  31 0
 6-311+G(2d,p)
 ****
 33  35  36  37  38 0
 6-311+G(2d,p)
 ****
 1  2  13  14  15  16  17  18  19  20  21  22  24  25 0
 3-21G
 ****
 27  28  29  32  34  39  40  41  42  43  44  45  46  47  48  49 0
 3-21G
 ****


